_cell_length_a  15
_cell_length_b  15
_cell_length_c  15

_cell_angle_alpha  90
_cell_angle_beta  90
_cell_angle_gamma  90

_symmetry_space_group_name_     'P 1'
_symmetry_space_group_name_H-M  'P 1'

loop_
_atom_site_label
_atom_site_type_symbol
_atom_site_fract_x
_atom_site_fract_y
_atom_site_fract_z
_atom_site_charge
O O 0.5728730144927535 0.5146352956521743 0.7162922260869565 -0.47708245912292496
O O 0.3439336144927536 0.36882196231884085 0.31642235942028984 -0.24513027763188452
O O 0.58810568115942 0.7049766956521742 0.43410995942028985 -0.47708245912292496
O O 0.5141932811594201 0.3789979623188409 0.7065243594202898 -0.2450630248660948
O O 0.3463073478260868 0.29194576231884084 0.4439697594202899 -0.4771241245439906
O O 0.5095306144927535 0.6631720289855075 0.31514775942028983 -0.2450630248660948
C C 0.5361906144927534 0.6460656956521742 0.38975349275362314 0.33863441291401103
C C 0.5327659478260869 0.4491961623188408 0.670058292753623 0.33863441291401103
C C 0.37029274782608695 0.3611366956521741 0.3928619594202896 0.3368454183184614
H H 0.43642008115942005 0.5146009623188409 0.3305442260869564 0.06343148105956128
H H 0.4341983478260868 0.34984129565217414 0.5649144260869563 0.06343148105956128
C C 0.5147623478260868 0.5636646956521744 0.4419588260869566 0.08095977677402462
C C 0.4300166144927534 0.42480136231884075 0.44197269275362305 0.06049856105676163
C C 0.5113244144927533 0.4707904289855074 0.5749450927536232 0.0809597767740246
C C 0.5462002144927535 0.5459950956521741 0.5294110260869564 0.05282200274208295
C C 0.4584024144927534 0.5021430289855074 0.39871775942028964 -0.031962034096783214
C C 0.45604794782608676 0.4098320289855076 0.5301647594202896 -0.031962034096783214
H H 0.3071454811594202 0.2559873623188408 0.4058298927536229 0.2954081530233327
H H 0.5878948144927535 0.4880230289855074 0.7739203594202897 0.29540890760154714
H H 0.5917270811594201 0.7564374289855075 0.394102292753623 0.29540890760154714
N N 0.6137456811594202 0.6026278289855075 0.5677902927536229 -0.35669396366318384
H H 0.6354916144927535 0.6062212956521742 0.6318400927536233 0.14236005508586905
H H 0.6624300811594203 0.6300858956521742 0.5287480927536231 0.14236005508586905
