_cell_length_a  15
_cell_length_b  15
_cell_length_c  15

_cell_angle_alpha  90
_cell_angle_beta  90
_cell_angle_gamma  90

_symmetry_space_group_name_     'P 1'
_symmetry_space_group_name_H-M  'P 1'

loop_
_atom_site_label
_atom_site_type_symbol
_atom_site_fract_x
_atom_site_fract_y
_atom_site_fract_z
_atom_site_charge
O O 0.6024402151515154 0.5110391030303032 0.7093556878787877 -0.47704174553339196
O O 0.3552434818181819 0.3716862363636364 0.3209573545454546 -0.2451302709479384
O O 0.6012184151515154 0.7037934363636364 0.43878928787878785 -0.47704174553339196
O O 0.5164859484848489 0.39017470303030305 0.7148467545454544 -0.24499731169714783
O O 0.3593958151515154 0.2916538363636365 0.4466154878787878 -0.47712412035825735
O O 0.518021881818182 0.6681326363636366 0.32101862121212127 -0.24499731169714783
C C 0.5445018151515153 0.6495114363636366 0.39545888787878786 0.34040154702916725
C C 0.5444395484848487 0.4535869030303031 0.6725212878787878 0.34040154702916725
C C 0.3834928151515154 0.36197363636363655 0.3963548878787878 0.3368469111604906
H H 0.45022281515151535 0.5140210363636364 0.3316548212121212 0.06348930173061798
H H 0.45066008181818196 0.3483809696969698 0.5663589545454545 0.06348930173061798
C C 0.5209757484848487 0.5674533696969699 0.44571948787878785 0.1016873439765652
C C 0.44375468181818206 0.4246809696969699 0.4443888878787879 0.06061300646238398
C C 0.5206046151515155 0.47370676969696984 0.5784052212121212 0.10168734397656519
C C 0.5425020818181819 0.5540171696969698 0.5358456212121212 0.14480389081569245
C C 0.4708244151515152 0.5025667030303034 0.40058402121212117 -0.030196083628420876
C C 0.470613081818182 0.40937470303030327 0.5320620212121211 -0.030196083628420876
H H 0.3178939484848486 0.2581743696969698 0.4086040212121212 0.2954081530233327
H H 0.6045162151515153 0.49490776969696976 0.7725152878787879 0.29540964154363963
H H 0.6039374151515153 0.7573721030303031 0.4013612212121212 0.29540964154363963
O O 0.5840920151515153 0.6156065030303033 0.5875333545454545 -0.5051180394342
H H 0.5941629484848487 0.6781856363636365 0.5790488212121211 0.2921950824364373
