_cell_length_a  15
_cell_length_b  15
_cell_length_c  15

_cell_angle_alpha  90
_cell_angle_beta  90
_cell_angle_gamma  90

_symmetry_space_group_name_     'P 1'
_symmetry_space_group_name_H-M  'P 1'

loop_
_atom_site_label
_atom_site_type_symbol
_atom_site_fract_x
_atom_site_fract_y
_atom_site_fract_z
_atom_site_charge
O O 0.6007589545454546 0.5027458999999997 0.7131551515151515 -0.47710002700546833
O O 0.3476807545454546 0.3761409666666663 0.3221838848484849 -0.24513028060477246
O O 0.5979972878787879 0.7083285666666664 0.4289149515151516 -0.47710002700546833
O O 0.5061191545454545 0.3890887666666664 0.7127664181818182 -0.24509138642018966
O O 0.35479255454545466 0.2944670999999997 0.4463720181818183 -0.47712412640572255
O O 0.5084556212121212 0.6675158333333331 0.31860828484848475 -0.24509138642018966
C C 0.5391678212121214 0.6520112333333332 0.3921862181818183 0.33790889748928843
C C 0.5394127545454545 0.4516807666666665 0.6730899515151515 0.33790889748928843
C C 0.37749928787878795 0.3657466999999999 0.3968009515151516 0.3368447606454395
H H 0.445180487878788 0.5174308999999996 0.33359228484848474 0.0634065227476412
H H 0.44756568787878803 0.3513713666666663 0.5658938848484848 0.0634065227476412
C C 0.5175780212121214 0.5714656999999997 0.44706388484848475 0.07350374577909835
C C 0.4396631545454547 0.42779303333333324 0.4449025515151515 0.06044919238574568
C C 0.5183115545454545 0.4769437666666664 0.5789891515151513 0.07350374577909835
C C 0.5396004212121213 0.5598794333333333 0.5384350181818182 0.032746157322940186
C C 0.466713087878788 0.5057007666666666 0.40230461818181823 -0.03268704771640185
C C 0.4673358212121213 0.4126564333333332 0.5315925515151514 -0.03268704771640185
H H 0.31234868787878795 0.26130176666666644 0.4097067515151516 0.2954081530233327
H H 0.5980639545454546 0.4868436333333333 0.7763975515151513 0.2954085842028357
H H 0.5974176212121213 0.7616518999999997 0.3912208181818181 0.2954085842028357
S S 0.5970640878787878 0.6462416333333333 0.6002758848484848 -0.14103858693811688
H H 0.6812732212121212 0.612993833333333 0.5755472181818181 0.10714615241754605
