_cell_length_a  15
_cell_length_b  15
_cell_length_c  15

_cell_angle_alpha  90
_cell_angle_beta  90
_cell_angle_gamma  90

_symmetry_space_group_name_     'P 1'
_symmetry_space_group_name_H-M  'P 1'

loop_
_atom_site_label
_atom_site_type_symbol
_atom_site_fract_x
_atom_site_fract_y
_atom_site_fract_z
_atom_site_charge
O O 0.5990744380952381 0.5272185555555555 0.7129705142857141 -0.4770613141811818
O O 0.3578629047619048 0.3796636222222222 0.3251945142857141 -0.24513027437466006
O O 0.5991109714285715 0.7137640222222222 0.4486875809523807 -0.4770613141811818
O O 0.527205838095238 0.3972459555555556 0.7169521809523808 -0.24502891154967407
O O 0.361856838095238 0.3006173555555557 0.4515848476190475 -0.4771241225041967
O O 0.5275343714285713 0.6743449555555556 0.32464338095238077 -0.24502891154967407
C C 0.5503332380952382 0.6566645555555557 0.4005724476190475 0.339642782273891
C C 0.5501887714285715 0.4628101555555554 0.6750139142857141 0.339642782273891
C C 0.38524637142857165 0.3707154222222223 0.4009031142857142 0.3368461609766172
H H 0.45083397142857135 0.5235964888888891 0.33643604761904744 0.06346148748336398
H H 0.4510104380952382 0.3583149555555554 0.5717594476190475 0.06346148748336398
C C 0.5263462380952383 0.5739586888888888 0.44878471428571415 0.09548768089061885
C C 0.44494077142857147 0.4335852888888888 0.4487957809523808 0.06055802984488647
C C 0.5262653047619047 0.48079675555555557 0.580938914285714 0.09548768089061885
C C 0.5535771714285713 0.5579966888888889 0.5364967809523807 0.1513055033307461
C C 0.47236063809523826 0.5112953555555555 0.4048199809523808 -0.030954294524007456
C C 0.4722785714285713 0.41835542222222216 0.5367842476190475 -0.030954294524007456
H H 0.3214273714285715 0.26560848888888877 0.41394524761904755 0.2954081530233327
H H 0.6085542380952382 0.5087656888888891 0.7748198476190474 0.29540927261634153
H H 0.6086883047619047 0.7659928888888888 0.41046684761904756 0.29540927261634153
F F 0.6053032380952381 0.618688688888889 0.5794296476190475 -0.20377685631542972
