_cell_length_a  15
_cell_length_b  15
_cell_length_c  15

_cell_angle_alpha  90
_cell_angle_beta  90
_cell_angle_gamma  90

_symmetry_space_group_name_     'P 1'
_symmetry_space_group_name_H-M  'P 1'

loop_
_atom_site_label
_atom_site_type_symbol
_atom_site_fract_x
_atom_site_fract_y
_atom_site_fract_z
_atom_site_charge
O O 0.58037808115942 0.5122871014492756 0.7108765333333336 -0.47707575927383256
O O 0.34795494782608677 0.36713156811594216 0.31679126666666685 -0.24513027687247005
O O 0.5933944144927533 0.7000023014492756 0.42973146666666673 -0.47707575927383256
O O 0.51789528115942 0.37787830144927537 0.7058269333333336 -0.24505223554459163
O O 0.35125868115942005 0.2886904347826088 0.4435266000000001 -0.4771241240684173
O O 0.5094233478260867 0.6613338347826088 0.3138609333333335 -0.24505223554459163
C C 0.53862708115942 0.6439946347826088 0.38748246666666664 0.3390708204719904
C C 0.5375323478260866 0.4471951014492754 0.6682006000000001 0.3390708204719904
C C 0.37500654782608683 0.3585171014492757 0.39272020000000013 0.33684561197422086
H H 0.4403329478260866 0.5108191014492754 0.32770340000000003 0.06344095938902941
H H 0.44016241449275323 0.3460626347826087 0.5630561333333335 0.06344095938902941
C C 0.51583628115942 0.5628207681159423 0.4398582666666667 0.0905091138166034
C C 0.4345931478260867 0.4215721681159421 0.44048966666666683 0.06051744362076588
C C 0.5149786144927533 0.4690971014492754 0.5738510000000002 0.09050911381660341
C C 0.5419310144927535 0.5463664347826088 0.5284956666666668 0.15406373812882088
C C 0.46191774782608647 0.49948236811594204 0.39650366666666675 -0.03152584624283919
C C 0.46150794782608656 0.4065174347826088 0.5286819333333334 -0.03152584624283919
H H 0.31120454782608664 0.2532311014492757 0.4058241333333335 0.2954081530233327
H H 0.59394368115942 0.4910426347826088 0.7712125333333335 0.295409002636226
H H 0.5980624811594201 0.7541912347826087 0.3934752000000001 0.295409002636226
N N 0.5965506811594199 0.6099967681159421 0.5732060666666666 0.05805883565631645
O O 0.6712342144927533 0.5913569014492754 0.5937052000000002 -0.12609574598387063
O O 0.5662735478260867 0.6804129681159422 0.5949201333333335 -0.12609574598387063
