_cell_length_a  15
_cell_length_b  15
_cell_length_c  15

_cell_angle_alpha  90
_cell_angle_beta  90
_cell_angle_gamma  90

_symmetry_space_group_name_     'P 1'
_symmetry_space_group_name_H-M  'P 1'

loop_
_atom_site_label
_atom_site_type_symbol
_atom_site_fract_x
_atom_site_fract_y
_atom_site_fract_z
_atom_site_charge
O O 0.5887078242424243 0.5144370666666666 0.7129896272727273 -0.4770970888963822
O O 0.3509340242424242 0.37255233333333315 0.3206497606060605 -0.24513028026685024
O O 0.5892914242424242 0.7093797999999999 0.4362238272727271 -0.4770970888963822
O O 0.5174404909090907 0.3844601333333331 0.7101532939393937 -0.2450866546073546
O O 0.3553633575757575 0.2935940666666664 0.4470588272727273 -0.4771241261941032
O O 0.5168809575757576 0.6638577333333332 0.3152324939393939 -0.2450866546073546
C C 0.5410987575757576 0.6492767999999999 0.3911374272727271 0.33809912426608085
C C 0.5412918909090908 0.4516545333333332 0.6714068939393939 0.33809912426608085
C C 0.3786090909090909 0.3635629333333333 0.39652049393939387 0.33684484627378425
H H 0.4437980242424243 0.5160898666666665 0.3319726272727272 0.06341067971809707
H H 0.4443098242424244 0.3514669333333332 0.566553027272727 0.06341067971809707
C C 0.5199592909090908 0.5675409333333331 0.4438767606060607 0.07770647109047943
C C 0.4383799575757576 0.42663353333333315 0.44411982727272714 0.06045747216898363
C C 0.5200169575757577 0.4739727333333331 0.5766829606060605 0.07770647109047943
C C 0.5485388909090908 0.5521169333333332 0.5323428939393938 0.07968540909346591
C C 0.46571729090909103 0.5042897333333333 0.4004161606060605 -0.032496916663678356
C C 0.46582475757575753 0.41172139999999985 0.5319378272727272 -0.032496916663678356
H H 0.3149021575757575 0.25847853333333304 0.4095343606060606 0.2954081530233327
H H 0.5989125575757577 0.49492819999999976 0.7744934939393937 0.2954086262288176
H H 0.598961690909091 0.7609693333333332 0.3974672939393939 0.2954086262288176
C C 0.6071155575757575 0.6143546 0.5771110272727271 0.1007958976914923
N N 0.6539452242424242 0.6646618666666665 0.612119093939394 -0.1908258540622249
