_cell_length_a  15
_cell_length_b  15
_cell_length_c  15

_cell_angle_alpha  90
_cell_angle_beta  90
_cell_angle_gamma  90

_symmetry_space_group_name_     'P 1'
_symmetry_space_group_name_H-M  'P 1'

loop_
_atom_site_label
_atom_site_type_symbol
_atom_site_fract_x
_atom_site_fract_y
_atom_site_fract_z
_atom_site_charge
O O 0.5937206095238097 0.5150593873015873 0.7246386952380952 -0.47710173021390484
O O 0.35836307619047647 0.3798555206349208 0.3261208285714285 -0.24513028092844696
O O 0.5921873428571428 0.7207491873015874 0.4326654285714286 -0.47710173021390484
O O 0.5210575428571429 0.3874978539682541 0.7126608952380951 -0.24509413863363647
O O 0.3622714761904762 0.30013272063492086 0.45155876190476196 -0.47712412660841946
O O 0.5216353428571431 0.6652683206349206 0.3155674285714285 -0.24509413863363647
C C 0.5463174095238095 0.6560297873015873 0.3926026952380951 0.3378541095754217
C C 0.546901342857143 0.45603112063492085 0.6772953619047619 0.3378541095754217
C C 0.3857950095238098 0.3707950539682539 0.4010542285714285 0.3368446914508351
H H 0.4507156761904765 0.5227375873015875 0.33749009523809514 0.0634040992448061
H H 0.4521000761904764 0.35886992063492057 0.5711300285714285 0.0634040992448061
C C 0.5274859428571429 0.5759477206349206 0.44882962857142844 0.07346040363811915
C C 0.445702342857143 0.4338963873015872 0.4494934952380952 0.060444411324057076
C C 0.5280262095238099 0.48189192063492087 0.5827174285714285 0.07346040363811916
C C 0.5564228761904763 0.5606227873015874 0.5380905619047617 0.041317131374867394
C C 0.47310680952380985 0.5114891206349207 0.40612269523809513 -0.03274178970641158
C C 0.473669542857143 0.4193499873015873 0.5370297619047617 -0.03274178970641158
H H 0.3216052761904763 0.26551272063492076 0.41394696190476193 0.2954081530233327
H H 0.6011787428571431 0.49195012063492066 0.7848974952380952 0.2954085501593016
H H 0.6009178095238096 0.7698678539682541 0.3906356285714285 0.2954085501593016
I I 0.6408195428571429 0.6564449206349205 0.6054518952380953 -0.04213898776361742
