_cell_length_a  15
_cell_length_b  15
_cell_length_c  15

_cell_angle_alpha  90
_cell_angle_beta  90
_cell_angle_gamma  90

_symmetry_space_group_name_     'P 1'
_symmetry_space_group_name_H-M  'P 1'

loop_
_atom_site_label
_atom_site_type_symbol
_atom_site_fract_x
_atom_site_fract_y
_atom_site_fract_z
_atom_site_charge
O O 0.5959066507936507 0.5186315746031748 0.7221031777777777 -0.47709249626157324
O O 0.35927698412698406 0.3799795746031748 0.3251540444444444 -0.24513027943905652
O O 0.595101650793651 0.7197641746031747 0.43758791111111106 -0.47709249626157324
O O 0.523854584126984 0.38996584126984146 0.7140063111111111 -0.24507923660899306
O O 0.36147905079365084 0.3008106412698415 0.4514296444444443 -0.4771241256757083
O O 0.5237855841269842 0.6685517079365082 0.3188583777777777 -0.24507923660899306
C C 0.5476828507936506 0.6569563746031747 0.39565291111111117 0.33826625152316353
C C 0.5484586507936506 0.4577682412698413 0.6771055111111111 0.33826625152316353
C C 0.3855552507936507 0.37113830793650826 0.40123284444444424 0.3368450259765986
H H 0.450845184126984 0.5236800412698415 0.3375439777777777 0.06341720980952162
H H 0.45134991746031744 0.3592419746031747 0.5717228444444444 0.06341720980952162
C C 0.5273239174603176 0.5754389079365081 0.44944877777777775 0.0786517070933413
C C 0.4453244507936507 0.43424970793650813 0.4495544444444443 0.060470370765716604
C C 0.5274651841269843 0.4817747746031747 0.5823481777777777 0.07865170709334128
C C 0.5560977174603176 0.559939907936508 0.537906711111111 0.06890419585408412
C C 0.4724783841269841 0.5121567746031749 0.40600664444444423 -0.032329916722486626
C C 0.47302278412698406 0.4194938412698415 0.5371691777777776 -0.03232991672248662
H H 0.3215826507936509 0.26614004126984125 0.41296717777777775 0.2954081530233327
H H 0.6044019174603175 0.49677224126984143 0.782888711111111 0.2954087146203187
H H 0.6036767841269841 0.769116507936508 0.3960195111111112 0.2954087146203187
Cl Cl 0.625329850793651 0.6384288412698415 0.5932931111111109 -0.08185780741155167
