_cell_length_a  15
_cell_length_b  15
_cell_length_c  15

_cell_angle_alpha  90
_cell_angle_beta  90
_cell_angle_gamma  90

_symmetry_space_group_name_     'P 1'
_symmetry_space_group_name_H-M  'P 1'

loop_
_atom_site_label
_atom_site_type_symbol
_atom_site_fract_x
_atom_site_fract_y
_atom_site_fract_z
_atom_site_charge
O O 0.5664958416666668 0.5061406888888889 0.7151639555555553 -0.4771181384306119
O O 0.3413741750000001 0.361989488888889 0.3147838888888888 -0.245130283524777
O O 0.5715567749999999 0.704737888888889 0.4305607555555555 -0.4771181384306119
O O 0.5134435083333333 0.3697908222222221 0.7003974888888888 -0.24512061508565047
O O 0.3453052416666669 0.28336195555555543 0.4416837555555554 -0.477124128234337
O O 0.5107263750000001 0.6515566222222222 0.30683475555555534 -0.24512061508565047
C C 0.5298423750000001 0.6401476888888887 0.3846166222222219 0.33709995854498515
C C 0.5294148416666666 0.441360088888889 0.6670889555555554 0.33709995854498515
C C 0.36859024166666676 0.3532631555555555 0.390694822222222 0.33684410470370774
H H 0.4334449083333334 0.5059990222222222 0.32620228888888875 0.06338080821683116
H H 0.4334373083333334 0.3424056888888888 0.561096822222222 0.06338080821683116
C C 0.5096657083333335 0.5578094222222221 0.43800922222222205 0.06328025058605632
C C 0.42831157500000017 0.4169188222222224 0.4384560222222221 0.06039827614592719
C C 0.5089620416666668 0.46467775555555557 0.5718748222222221 0.06328025058605632
C C 0.5394855750000002 0.5419953555555554 0.526703622222222 -0.02250546478241419
C C 0.4553971750000001 0.49434015555555544 0.39457428888888885 -0.033495460027839305
C C 0.4550479750000002 0.40241242222222234 0.5265136888888886 -0.033495460027839305
H H 0.30517630833333353 0.2481915555555556 0.40408115555555557 0.2954081530233327
H H 0.5821001750000002 0.4797406222222223 0.7726371555555556 0.2954082617212277
H H 0.585066041666667 0.7525271555555554 0.38829888888888875 0.2954082617212277
C C 0.6062288416666669 0.6069582888888889 0.5682130888888889 -0.03814463264976413
H H 0.6442326416666668 0.5865378222222221 0.6268890222222222 0.027794614756109136
H H 0.5739763083333334 0.6717714222222221 0.5835376888888887 0.027794614756109136
H H 0.6627180416666667 0.6153660888888888 0.5210872222222223 0.027794614756109136
