_cell_length_a  15
_cell_length_b  15
_cell_length_c  15

_cell_angle_alpha  90
_cell_angle_beta  90
_cell_angle_gamma  90

_symmetry_space_group_name_     'P 1'
_symmetry_space_group_name_H-M  'P 1'

loop_
_atom_site_label
_atom_site_type_symbol
_atom_site_fract_x
_atom_site_fract_y
_atom_site_fract_z
_atom_site_charge
O O 0.5939729619047617 0.5182056126984127 0.7234721396825398 -0.47710022581739314
O O 0.35802682857142837 0.3795322793650795 0.32604933968253985 -0.24513028068575818
O O 0.5945341619047618 0.7198307460317461 0.4349853396825398 -0.47710022581739314
O O 0.5254196952380953 0.3880902793650793 0.7123773396825397 -0.24509171079138528
O O 0.3613560285714287 0.30078181269841264 0.4524937396825396 -0.4771241264564388
O O 0.522047561904762 0.6673630126984127 0.3175999396825398 -0.24509171079138528
C C 0.5472612952380953 0.6563142126984128 0.3940124730158731 0.3379212412374766
C C 0.5485919619047618 0.45727794603174604 0.6770141396825397 0.3379212412374766
C C 0.38506502857142866 0.37087387936507926 0.40165800634920645 0.33684474595742375
H H 0.45051042857142853 0.5230308793650794 0.3374012063492065 0.06340623521473474
H H 0.45192749523809506 0.3589582126984129 0.5713449396825399 0.06340623521473474
C C 0.5272054952380951 0.5755950126984127 0.4490850063492064 0.07430597264770004
C C 0.4451616285714286 0.4341672793650794 0.4493994063492065 0.06044864061620847
C C 0.5276321619047618 0.48171821269841286 0.5822369396825396 0.07430597264770003
C C 0.5562294285714284 0.560309746031746 0.5377610063492064 0.0458165828346931
C C 0.47259376190476193 0.511885946031746 0.40587340634920654 -0.03267470183439861
C C 0.4732160285714285 0.41948001269841273 0.536963473015873 -0.03267470183439861
H H 0.3209928285714285 0.26560127936507955 0.4147048063492065 0.2954081530233327
H H 0.6031574952380951 0.49537854603174597 0.783709073015873 0.29540857695623407
H H 0.6026085619047616 0.7695574793650795 0.39376847301587314 0.29540857695623407
Br Br 0.6324891619047618 0.6460476126984126 0.5980898063492065 -0.04861449051539774
