_cell_length_a  15
_cell_length_b  15
_cell_length_c  15

_cell_angle_alpha  90
_cell_angle_beta  90
_cell_angle_gamma  90

_symmetry_space_group_name_     'P 1'
_symmetry_space_group_name_H-M  'P 1'

loop_
_atom_site_label
_atom_site_type_symbol
_atom_site_fract_x
_atom_site_fract_y
_atom_site_fract_z
_atom_site_charge
O O 0.5556987472222221 0.5135575333333335 0.714120925 -0.47711552567285187
O O 0.34043014722222215 0.3612107333333334 0.315909525 -0.245130283524777
O O 0.5462195472222221 0.7107055333333335 0.4326721916666668 -0.47711552567285187
O O 0.5213067472222223 0.37026046666666684 0.6984095916666668 -0.24511642874268563
O O 0.34469194722222213 0.2827759333333333 0.4421727916666666 -0.477124128234337
O O 0.5235121472222222 0.6434490666666669 0.30190192499999996 -0.24511642874268563
C C 0.5265853472222219 0.6391188000000002 0.38272605833333334 0.33739291739793664
C C 0.5291504138888888 0.44397880000000023 0.6652193249999999 0.33739291739793664
C C 0.36775441388888874 0.35320600000000013 0.390980525 0.3368441351805053
H H 0.43095841388888884 0.5060426000000002 0.32639292500000006 0.06338447270795684
H H 0.4325512805555553 0.34415006666666675 0.5619997916666667 0.06338447270795684
C C 0.5076625472222219 0.5584116666666669 0.43701892500000006 0.07200737369893309
C C 0.4268954138888888 0.4175775333333334 0.43927992500000007 0.06040568251423713
C C 0.5086944138888888 0.4665338666666668 0.5704330583333334 0.07200737369893309
C C 0.539934013888889 0.5433769333333335 0.5252139916666666 0.08268798661970668
C C 0.45316901388888875 0.4945456666666667 0.39459465833333335 -0.03320260833734362
C C 0.45409048055555545 0.4037404 0.5264390583333333 -0.03320260833734361
H H 0.3049318805555554 0.24744900000000006 0.40384312499999997 0.2954081530233327
H H 0.5785883472222221 0.4884104666666668 0.7700405250000001 0.2954082764822174
H H 0.5741448805555556 0.753496 0.39150925833333333 0.2954082764822174
C C 0.6136922805555554 0.6016765333333335 0.567252325 0.4189476195720082
F F 0.6749343472222223 0.5486317333333335 0.6115061249999999 -0.16585204007300058
F F 0.6669140138888888 0.6440336666666667 0.5052167916666667 -0.16585204007300058
F F 0.5774892138888889 0.6636610000000002 0.6251466583333333 -0.16585204007300058
