_cell_length_a  15
_cell_length_b  15
_cell_length_c  15

_cell_angle_alpha  90
_cell_angle_beta  90
_cell_angle_gamma  90

_symmetry_space_group_name_     'P 1'
_symmetry_space_group_name_H-M  'P 1'

loop_
_atom_site_label
_atom_site_type_symbol
_atom_site_fract_x
_atom_site_fract_y
_atom_site_fract_z
_atom_site_charge
H H 0.5002514039215686 0.49981457647058825 0.1824429196078432 0.0634062144603814
C C 0.500367937254902 0.5009468431372549 0.2551515862745098 -0.03268001512944899
C C 0.4991446705882353 0.5015240431372548 0.44459458627450993 -0.002313504230162489
C C 0.46003273725490196 0.5721125098039216 0.30121131960784314 0.07409961482966322
C C 0.49869573725490196 0.4952951098039216 0.5439111862745099 -0.015237303821451146
C C 0.46330893725490196 0.5748459764705882 0.3954967196078431 0.0395601042883289
C C 0.43038360392156866 0.5346290431372549 0.6872717196078431 0.06018102968527154
C C 0.5017294039215686 0.49761437647058826 0.7333118529411763 -0.033756579706687134
H H 0.503988737254902 0.5002063764705882 0.8056310529411765 0.06337227987370657
C C 0.5380972705882352 0.4311747098039216 0.3951972529411765 -0.03894992805048619
C C 0.5417161372549019 0.43185337647058825 0.3019825196078432 0.06024717650168336
C C 0.5702436705882352 0.4567645764705882 0.6851557862745097 0.06018102968527154
H H 0.5679478039215685 0.37482397647058824 0.4300570529411765 0.063202709168578
C C 0.5702840039215685 0.4589535764705882 0.5916477196078432 -0.03997345636959578
C C 0.5908962705882352 0.3618233098039216 0.25218618627450984 0.33684212763922045
O O 0.6018482039215686 0.28725090980392154 0.3008543862745098 -0.477124133785908
O O 0.6188831372549018 0.3795003098039216 0.8111346529411764 -0.47712413616367283
O O 0.6207065372549019 0.3688541764705882 0.1771257862745098 -0.2451302923897475
H H 0.6281900705882353 0.4317169098039216 0.5567250529411766 0.06316982957577322
C C 0.6431850039215685 0.4086506431372549 0.7308524529411765 0.3368412749861464
O O 0.7152618705882353 0.3895947098039215 0.698487119607843 -0.24513029618665733
O O 0.2868862705882353 0.6051041764705882 0.6989946529411765 -0.24513029618665733
C C 0.3589406039215686 0.586559843137255 0.7312885862745098 0.3368412749861464
H H 0.36587333725490195 0.549669843137255 0.5616848529411764 0.06316982957577322
O O 0.3728794039215686 0.6189903764705882 0.1755601196078432 -0.24509172284883385
O O 0.3846576705882353 0.6192258431372548 0.8106211196078431 -0.47712413616367283
O O 0.41013140392156866 0.7206040431372549 0.27713951960784317 -0.47710023336821156
C C 0.41085660392156864 0.6374223098039216 0.24491325294117647 0.3379185455544799
C C 0.426315737254902 0.5264415764705882 0.5945346529411765 -0.03997345636959578
H H 0.33447573725490193 0.6569709098039216 0.8289585862745099 0.2954081530233327
H H 0.6690728705882353 0.3429645764705882 0.8309751196078433 0.2954081530233327
H H 0.3640410039215686 0.7535409764705883 0.24488171960784316 0.29540857695623407
H H 0.6359946039215686 0.2467268431372549 0.2624928529411765 0.2954081530233327
Br Br 0.41471160392156864 0.6778286431372549 0.4575260529411765 -0.048826586065867456
