_cell_length_a  15
_cell_length_b  15
_cell_length_c  15

_cell_angle_alpha  90
_cell_angle_beta  90
_cell_angle_gamma  90

_symmetry_space_group_name_     'P 1'
_symmetry_space_group_name_H-M  'P 1'

loop_
_atom_site_label
_atom_site_type_symbol
_atom_site_fract_x
_atom_site_fract_y
_atom_site_fract_z
_atom_site_charge
H H 0.500163531372549 0.5005036607843137 0.18269490588235293 0.06341718894144142
C C 0.5005794647058823 0.5014569941176471 0.2553743725490196 -0.03233525841349051
C C 0.49906526470588236 0.5013200607843137 0.44457190588235296 0.0020496075788810487
C C 0.460601731372549 0.572547794117647 0.3016661725490197 0.07844369123628851
C C 0.4982780647058824 0.49557726078431374 0.5437387725490197 -0.014899426249961711
C C 0.4635540647058824 0.5747577274509804 0.39573483921568625 0.0626456017296349
C C 0.43038406470588236 0.5354273941176471 0.6872159725490194 0.06018116395274838
C C 0.5018030647058824 0.4981423274509804 0.7330990392156861 -0.033756578607497006
H H 0.503916131372549 0.5002845274509804 0.8054342392156861 0.06337227987370657
C C 0.5380060647058824 0.43118179411764707 0.39524870588235295 -0.038611464349500836
C C 0.5414088647058823 0.4321473941176471 0.30206030588235305 0.06026870014192659
C C 0.5702126647058824 0.4572269274509804 0.6850087725490196 0.06018116395274838
H H 0.567550531372549 0.37459619411764705 0.43000457254901964 0.06321347545764375
C C 0.5704291980392157 0.4592063274509804 0.5914422392156863 -0.039962695874419966
C C 0.5904027980392157 0.3619817274509804 0.25259423921568636 0.3368424050743087
O O 0.6008027980392157 0.28708992745098033 0.3008729725490197 -0.4771241330122609
O O 0.6184676647058823 0.3784895274509804 0.8104420392156861 -0.47712413616367283
O O 0.620223131372549 0.3691323941176471 0.17770803921568631 -0.2451302911543569
H H 0.6273323980392157 0.4307006607843137 0.5565409725490196 0.06316996243357897
C C 0.643264731372549 0.4087819274509804 0.7299380392156862 0.33684127553574145
O O 0.7152659980392158 0.3902755941176471 0.6977451058823531 -0.24513029618665733
O O 0.28619919803921573 0.6044710607843137 0.6995711058823528 -0.24513029618665733
C C 0.358431531372549 0.586499194117647 0.7314665725490196 0.33684127553574145
H H 0.3666576647058824 0.5526164607843137 0.5614517725490196 0.06316996243357897
O O 0.37432533137254903 0.620260794117647 0.1765722392156863 -0.24507924878398787
O O 0.38427933137254905 0.6191156607843137 0.810794305882353 -0.47712413616367283
O O 0.4093211980392157 0.7212155274509803 0.28000443921568635 -0.47709250388600344
C C 0.4113807980392157 0.6385863274509803 0.24643630588235302 0.3382635300208921
C C 0.42646099803921567 0.528031994117647 0.5944047725490196 -0.039962695874419966
H H 0.3339955980392157 0.6568000607843136 0.8288909725490198 0.2954081530233327
H H 0.6690445980392157 0.34212779411764704 0.8302798392156862 0.2954081530233327
H H 0.36442246470588235 0.754061994117647 0.24601930588235293 0.2954087146203187
H H 0.6352390647058823 0.2470475274509804 0.2622832392156863 0.2954081530233327
Cl Cl 0.4185299980392157 0.6683374607843137 0.452688905882353 -0.08207129668261859
