_cell_length_a  15
_cell_length_b  15
_cell_length_c  15

_cell_angle_alpha  90
_cell_angle_beta  90
_cell_angle_gamma  90

_symmetry_space_group_name_     'P 1'
_symmetry_space_group_name_H-M  'P 1'

loop_
_atom_site_label
_atom_site_type_symbol
_atom_site_fract_x
_atom_site_fract_y
_atom_site_fract_z
_atom_site_charge
H H 0.5097065855855856 0.48375896036036037 0.18577995495495495 0.06338078776736251
C C 0.5088645189189189 0.48485796036036033 0.2583514882882883 -0.033500696328900265
C C 0.5040684522522523 0.48613722702702705 0.4488520882882883 -0.013380265552347234
C C 0.46738345225225225 0.5551056936936937 0.303536754954955 0.0630786452439505
C C 0.504098318918919 0.48201629369369375 0.5482870216216217 -0.01604149307630348
C C 0.4661567189189189 0.5575016270270271 0.39875655495495493 -0.028753960894650172
C C 0.4362290522522523 0.5225405603603603 0.6919425549549548 0.060180722223892445
C C 0.5070851189189189 0.485004827027027 0.7384868216216217 -0.03375658220973719
H H 0.508572518918919 0.486896827027027 0.8108250216216215 0.06337227987370657
C C 0.5449149189189189 0.41647309369369373 0.40007108828828825 -0.03975547249568451
C C 0.5491406522522522 0.4165701603603604 0.3066038216216216 0.06019729337471401
C C 0.5755216522522523 0.443925027027027 0.6903248882882882 0.060180722223892445
H H 0.5752719189189189 0.36051569369369374 0.4351518216216216 0.06317776745304092
C C 0.5757639189189189 0.4458899603603604 0.5966280216216217 -0.039998393093964156
C C 0.598767118918919 0.34661789369369367 0.25758068828828834 0.3368414923197442
O O 0.6076268522522523 0.271527427027027 0.3057318882882883 -0.47712413554765465
O O 0.6250417189189189 0.3673949603603604 0.8166888216216217 -0.47712413616367283
O O 0.629232718918919 0.353417627027027 0.18276095495495498 -0.24513029520297494
H H 0.6329475855855856 0.4173411603603604 0.5620290216216216 0.06316952535864244
C C 0.6492862522522523 0.39628816036036035 0.7353552216216215 0.33684127373462136
O O 0.7206745855855856 0.37766489369369366 0.7027718216216214 -0.24513029618665733
O O 0.2928841189189189 0.5937092270270271 0.7023769549549551 -0.24513029618665733
C C 0.36435911891891887 0.574462827027027 0.7355206216216217 0.33684127373462136
H H 0.3717013855855856 0.5366448270270271 0.5662728882882884 0.06316952535864244
O O 0.38459778558558555 0.6063279603603604 0.17582368828828834 -0.24512062682299274
O O 0.38930425225225224 0.6066306270270271 0.8152787549549548 -0.47712413616367283
O O 0.4188834522522523 0.7050253603603605 0.2817152216216216 -0.47711814578096795
C C 0.4208892522522523 0.6224114936936936 0.2465818882882883 0.3370973339404147
C C 0.4323398522522523 0.5140615603603603 0.5991075549549549 -0.039998393093964156
H H 0.33893478558558565 0.6441005603603603 0.8336582216216215 0.2954081530233327
H H 0.6758936522522523 0.33127642702702703 0.8361467549549549 0.2954081530233327
H H 0.37280065225225223 0.7380483603603605 0.24938275495495504 0.2954082617212277
H H 0.6419413189189189 0.23126982702702703 0.2673508882882883 0.2954081530233327
C C 0.4301142522522523 0.6409996270270271 0.4447127549549549 -0.038350279640386085
H H 0.44133985225225225 0.6479363603603603 0.5165018216216216 0.027792080347572086
H H 0.3581039189189189 0.6501695603603604 0.4301229549549549 0.027792080347572086
H H 0.46955771891891895 0.6994793603603604 0.42292995495495495 0.027792080347572086
