_cell_length_a  15
_cell_length_b  15
_cell_length_c  15

_cell_angle_alpha  90
_cell_angle_beta  90
_cell_angle_gamma  90

_symmetry_space_group_name_     'P 1'
_symmetry_space_group_name_H-M  'P 1'

loop_
_atom_site_label
_atom_site_type_symbol
_atom_site_fract_x
_atom_site_fract_y
_atom_site_fract_z
_atom_site_charge
H H 0.500589331372549 0.5001316294117647 0.18267128823529408 0.06340407851258302
C C 0.500721331372549 0.501650562745098 0.25557675490196075 -0.032747097475496145
C C 0.4992116647058823 0.5022258294117647 0.44502495490196076 -0.0031624565387351022
C C 0.4611366647058823 0.573439362745098 0.30100868823529414 0.07325436923148074
C C 0.498639731372549 0.49519256274509804 0.5443068882352942 -0.015303046705159182
C C 0.46437453137254897 0.5759634294117647 0.39551762156862746 0.03506113770143914
C C 0.42955899803921566 0.532202762745098 0.6877256215686274 0.06018100354989453
C C 0.5018499980392156 0.4969556294117647 0.7338232882352941 -0.033756579920659016
H H 0.504564131372549 0.5002988960784314 0.8060517549019608 0.06337227987370657
C C 0.5375233980392158 0.43154982941176473 0.3956603549019608 -0.03901578501626191
C C 0.5413664647058825 0.43209756274509803 0.302403688235294 0.060242987422962274
C C 0.5707618647058824 0.45681556274509805 0.6856965549019608 0.06018100354989453
H H 0.5667375980392158 0.37472956274509805 0.43042675490196086 0.06320061376202613
C C 0.5711993980392157 0.4598840294117647 0.5921412215686275 -0.039975550641648906
C C 0.5900446647058823 0.3617816294117647 0.2527154882352941 0.3368420736358768
O O 0.6015307313725491 0.28717242941176474 0.3012150215686274 -0.47712413393650915
O O 0.6202979313725491 0.3793992294117647 0.811779088235294 -0.47712413616367283
O O 0.6182623980392157 0.36801329607843136 0.1769558215686274 -0.24513029263023337
H H 0.6288551313725491 0.433004762745098 0.5568654215686275 0.06316980371477612
C C 0.6443947980392157 0.40965682941176473 0.7309856882352942 0.3368412748791605
O O 0.716667331372549 0.3918666960784314 0.6983055549019608 -0.24513029618665733
O O 0.285557931372549 0.602296962745098 0.6998286882352941 -0.24513029618665733
C C 0.3575844647058823 0.5838722960784313 0.7316993549019609 0.3368412748791605
H H 0.36411486470588234 0.5448510294117647 0.5617896215686274 0.06316980371477612
O O 0.3720850647058823 0.6161121627450981 0.17555088823529416 -0.24509415066821286
O O 0.3837741980392157 0.617106362745098 0.8110370882352941 -0.47712413616367283
O O 0.41344626470588236 0.7215568960784313 0.27103222156862744 -0.4771017377503998
C C 0.41196139803921566 0.6369984960784314 0.24318595490196085 0.3378514189165859
C C 0.4251413980392157 0.5234920294117648 0.5949069549019607 -0.039975550641648906
H H 0.3344173980392157 0.656109962745098 0.8288901549019608 0.2954081530233327
H H 0.670924931372549 0.34275716274509804 0.8313491549019607 0.2954081530233327
H H 0.3666583980392157 0.752823762745098 0.23801802156862747 0.2954085501593016
H H 0.6353380647058824 0.24698496274509807 0.2621578215686275 0.2954081530233327
I I 0.410707531372549 0.6910058294117647 0.46369655490196077 -0.04235088594799786
