_cell_length_a  15
_cell_length_b  15
_cell_length_c  15

_cell_angle_alpha  90
_cell_angle_beta  90
_cell_angle_gamma  90

_symmetry_space_group_name_     'P 1'
_symmetry_space_group_name_H-M  'P 1'

loop_
_atom_site_label
_atom_site_type_symbol
_atom_site_fract_x
_atom_site_fract_y
_atom_site_fract_z
_atom_site_charge
H H 0.5027592019047619 0.4949874685714286 0.18373127238095244 0.06348928034252241
C C 0.5029873352380952 0.4954226019047619 0.2564182723809525 -0.030201552583963256
C C 0.5029623352380953 0.49551746857142853 0.44594273904761916 0.025193813067592833
C C 0.4612329352380952 0.5646950019047619 0.30311467238095247 0.10147285310509362
C C 0.5030872685714286 0.4929681352380953 0.5448338723809525 -0.012807632193024126
C C 0.46443333523809527 0.5660861352380953 0.3968166723809525 0.1385221040350479
C C 0.43465313523809523 0.5338126019047619 0.6875364723809523 0.06018206798764723
C C 0.5042685352380952 0.4937089352380953 0.7341306723809524 -0.03375657112069412
H H 0.505091001904762 0.49478540190476195 0.8065665390476191 0.06337227987370657
C C 0.5427610019047618 0.4260622019047619 0.39672933904761915 -0.036515802951108414
C C 0.5448412019047619 0.4269885352380952 0.30348907238095246 0.060409996756168795
C C 0.572630601904762 0.4521922019047619 0.6865536057142859 0.06018206798764723
H H 0.5731492685714286 0.3701122685714286 0.4316272723809524 0.06328421517697803
C C 0.5735497352380953 0.45455746857142854 0.5930831390476191 -0.039892045519964794
C C 0.5943136019047619 0.3571590685714286 0.2540783390476191 0.3368442729676522
O O 0.6045493352380953 0.2823116019047619 0.3022382057142858 -0.4771241277429058
O O 0.6203657352380952 0.3737460019047619 0.8123278723809525 -0.47712413616367283
O O 0.6234496685714286 0.36416940190476194 0.17873713904761915 -0.2451302827400401
H H 0.6303832019047619 0.4254446019047619 0.5585310057142858 0.06317085707647063
C C 0.6454792685714286 0.4037828019047619 0.731747339047619 0.3368412792791429
O O 0.7177616019047619 0.38560140190476194 0.6999350723809525 -0.24513029618665733
O O 0.2896428685714286 0.6013376685714286 0.7007823390476192 -0.24513029618665733
C C 0.3622203352380952 0.5835382019047619 0.7323056057142857 0.3368412792791429
H H 0.37480100190476195 0.5577590685714285 0.560743739047619 0.06317085707647063
O O 0.3844506019047619 0.6247041352380953 0.17545153904761915 -0.24499732438212052
O O 0.38763173523809524 0.6146878685714285 0.8123421390476191 -0.47712413616367283
O O 0.39906000190476193 0.7087874019047619 0.2978205390476191 -0.47704175347718913
C C 0.4120969352380952 0.6329529352380953 0.25127053904761915 0.34039871551267725
C C 0.4324836685714286 0.5293945352380952 0.5945677390476192 -0.039892045519964794
H H 0.33696333523809524 0.6513293352380952 0.8313274723809525 0.2954081530233327
H H 0.6709486685714285 0.33742986857142854 0.832172939047619 0.2954081530233327
H H 0.3666492019047619 0.7478396685714286 0.25600433904761916 0.29540964154363963
H H 0.638705001904762 0.24212333523809526 0.26360420571428583 0.2954081530233327
O O 0.4293916685714286 0.6323984685714286 0.44745233904761916 -0.505333237971584
H H 0.39024566857142856 0.681606201904762 0.4359859390476191 0.2921912007656205
