_cell_length_a  15
_cell_length_b  15
_cell_length_c  15

_cell_angle_alpha  90
_cell_angle_beta  90
_cell_angle_gamma  90

_symmetry_space_group_name_     'P 1'
_symmetry_space_group_name_H-M  'P 1'

loop_
_atom_site_label
_atom_site_type_symbol
_atom_site_fract_x
_atom_site_fract_y
_atom_site_fract_z
_atom_site_charge
H H 0.5058794171428571 0.4911698152380952 0.1823932038095238 0.06341065884794608
C C 0.5053298838095238 0.4930050819047619 0.2550050038095238 -0.0325022597810814
C C 0.5017128171428571 0.49623394857142855 0.4447959371428571 0.0010954032907816204
C C 0.46367995047619043 0.5632843485714286 0.29989473714285714 0.07749806399695544
C C 0.5015280838095239 0.49351414857142856 0.5443450038095238 -0.015063237618277955
C C 0.4638976838095238 0.5667489485714285 0.39398307047619047 0.07343118626827036
C C 0.43397955047619047 0.533868081904762 0.6881419371428571 0.06018107777036621
C C 0.5037532171428571 0.4940858819047619 0.7345122704761906 -0.033756579337346534
H H 0.5047904171428571 0.49492508190476187 0.8069321371428572 0.06337227987370657
C C 0.5420623504761904 0.42569548190476186 0.3970620704761905 -0.03877562947284836
C C 0.5460232171428571 0.4251680819047619 0.3037499371428572 0.06025592072001382
C C 0.5716806171428571 0.45250661523809527 0.6863797371428573 0.06018107777036621
H H 0.5718313504761904 0.3698336819047619 0.43289760380952386 0.06320706600252253
C C 0.5721143504761905 0.4551801485714285 0.5926988704761906 -0.03996908725647718
C C 0.5957977504761904 0.35519461523809526 0.25536267047619055 0.3368422270151092
O O 0.6044761504761904 0.28026761523809524 0.3035755371428572 -0.4771241335259532
O O 0.6196514838095237 0.3728965485714285 0.8114138038095239 -0.47712413616367283
O O 0.6265410171428571 0.3625258819047619 0.18076060380952388 -0.2451302919746412
H H 0.6289184171428571 0.4256758152380952 0.5583307371428572 0.06316987712786806
C C 0.6446811504761905 0.4038040152380952 0.731182803809524 0.3368412751708167
O O 0.7170372838095239 0.38656188190476193 0.6989567371428571 -0.24513029618665733
O O 0.28852481714285716 0.5997410819047619 0.7014064704761904 -0.24513029618665733
C C 0.3614504838095238 0.5834919485714286 0.7328759371428573 0.3368412751708167
H H 0.37154855047619045 0.5554067485714286 0.5631264038095238 0.06316987712786806
O O 0.3705032838095238 0.610945481904762 0.17932153714285715 -0.2450866667929262
O O 0.3868734171428571 0.6156547485714285 0.812438803809524 -0.47712413616367283
O O 0.41947755047619045 0.7115817485714285 0.27841867047619046 -0.477097096527436
C C 0.41417235047619044 0.6289645485714286 0.24509907047619048 0.33809639969555433
C C 0.4310288171428571 0.5287810819047619 0.5949801371428572 -0.03996908725647718
H H 0.33604288380952385 0.6522813485714286 0.8312058704761908 0.2954081530233327
H H 0.6704756838095238 0.33713614857142854 0.8316454038095238 0.2954081530233327
H H 0.37064681714285713 0.7465760819047619 0.2525907371428572 0.2954086262288176
H H 0.6386053504761905 0.23991181523809527 0.2650835371428572 0.2954081530233327
C C 0.4237025504761905 0.6431567485714286 0.43727553714285716 0.1005846787181943
N N 0.3915812838095238 0.7042247485714286 0.47215747047619055 -0.19082849562184628
