_cell_length_a  15
_cell_length_b  15
_cell_length_c  15

_cell_angle_alpha  90
_cell_angle_beta  90
_cell_angle_gamma  90

_symmetry_space_group_name_     'P 1'
_symmetry_space_group_name_H-M  'P 1'

loop_
_atom_site_label
_atom_site_type_symbol
_atom_site_fract_x
_atom_site_fract_y
_atom_site_fract_z
_atom_site_charge
H H 0.5046953276190477 0.49727862666666667 0.185266441904762 0.06340650202942132
C C 0.5051273942857143 0.49790836 0.25797250857142867 -0.032692352032874766
C C 0.503827060952381 0.49708709333333334 0.44665857523809527 -0.0031161760722670804
C C 0.46613759428571433 0.5696274933333333 0.30461897523809534 0.07329798420789563
C C 0.5028205276190476 0.4900306266666667 0.5458331752380953 -0.015249315052669727
C C 0.46975459428571426 0.5724160266666666 0.39893744190476194 0.026477639637715288
C C 0.43458439428571427 0.52973676 0.6889909085714286 0.06018103673692944
C C 0.506205460952381 0.49299615999999996 0.7350417085714286 -0.03375657963528418
H H 0.5088599276190476 0.4960926933333333 0.8073061085714286 0.06337227987370657
C C 0.5413545276190477 0.42628296 0.3970871752380953 -0.03896192111665928
C C 0.545233460952381 0.42806116 0.30401984190476194 0.06024772492794933
C C 0.5744159276190477 0.4515610933333333 0.6868755752380954 0.06018103673692944
H H 0.5709933942857144 0.36967136 0.43149657523809537 0.06320299309053215
C C 0.5745467942857143 0.4535546266666666 0.5933913085714285 -0.03997318081527529
C C 0.593886660952381 0.35775862666666663 0.253672241904762 0.3368421421997942
O O 0.6066711276190477 0.28343682666666664 0.3022003085714286 -0.4771241337356521
O O 0.6232361942857144 0.37401936 0.812455241904762 -0.47712413616367283
O O 0.6209445276190476 0.3641480266666666 0.17746324190476195 -0.24513029230949682
H H 0.6318301942857143 0.42597662666666664 0.5583253085714287 0.06316983656923215
C C 0.648017460952381 0.40373696 0.7317245085714288 0.3368412750218479
O O 0.7198923276190476 0.3854986933333333 0.699261241904762 -0.24513029618665733
O O 0.291528060952381 0.6012866266666667 0.700781441904762 -0.24513029618665733
C C 0.3634935276190476 0.5822662933333334 0.7329783752380955 0.3368412750218479
H H 0.3701987942857142 0.5452377599999999 0.5631285752380955 0.06316983656923215
O O 0.38773072761904764 0.6197159600000001 0.17443090857142868 -0.24509139843555822
O O 0.38926566095238097 0.6145432933333334 0.8124523085714287 -0.47712413616367283
O O 0.4080433276190476 0.7165804266666667 0.2842929085714286 -0.47710003452993466
C C 0.418396660952381 0.6356455599999999 0.24772937523809535 0.33790621091360323
C C 0.4302456609523809 0.5212762933333334 0.5963219752380954 -0.03997318081527529
H H 0.3392197276190476 0.65251716 0.8306268419047619 0.2954081530233327
H H 0.6736725276190476 0.3374132933333333 0.8318878419047618 0.2954081530233327
H H 0.3704393942857143 0.7503548933333334 0.2430247085714287 0.2954085842028357
H H 0.6399167942857144 0.24357522666666664 0.2624519752380952 0.2954081530233327
S S 0.42703212761904763 0.6685140933333333 0.4586834419047619 -0.141237213236944
H H 0.3377821276190476 0.6441929599999999 0.4426109085714287 0.10714382567908123
