_cell_length_a  15
_cell_length_b  15
_cell_length_c  15

_cell_angle_alpha  90
_cell_angle_beta  90
_cell_angle_gamma  90

_symmetry_space_group_name_     'P 1'
_symmetry_space_group_name_H-M  'P 1'

loop_
_atom_site_label
_atom_site_type_symbol
_atom_site_fract_x
_atom_site_fract_y
_atom_site_fract_z
_atom_site_charge
H H 0.5003464627450981 0.49998884313725495 0.18193909607843145 0.06346146618587695
C C 0.5004481294117648 0.5000736431372549 0.25454136274509814 -0.030959743027905526
C C 0.4997053294117647 0.49976277647058825 0.4437278294117649 0.018954933303021247
C C 0.4585263294117647 0.5689303764705883 0.3015068294117648 0.0952735912616575
C C 0.4995697960784314 0.4991015098039216 0.5425731627450981 -0.01355121671796249
C C 0.4602155294117647 0.5692763764705883 0.39469469607843144 0.1450372033535487
C C 0.4313009294117647 0.5407041098039216 0.6852092960784316 0.06018170820263583
C C 0.5003077960784313 0.4995245098039216 0.7318278960784315 -0.03375657414218532
H H 0.500908062745098 0.500037643137255 0.8043659627450981 0.06337227987370657
C C 0.5400301294117646 0.4305713764705883 0.39499709607843153 -0.03726088820419741
C C 0.5423950627450981 0.4314797098039216 0.3015487627450982 0.060355529481822455
C C 0.568789462745098 0.45775457647058826 0.6845629627450982 0.06018170820263583
H H 0.570756862745098 0.37473557647058825 0.4298100960784315 0.06325691599750263
C C 0.5695683960784313 0.4599225098039216 0.5910524960784315 -0.039919284644403905
C C 0.5916511960784313 0.3617107764705883 0.2521250960784315 0.33684352962812575
O O 0.6018652627450981 0.2868953098039216 0.3004412294117648 -0.47712412986946634
O O 0.6169625294117648 0.3796407098039216 0.8104326960784315 -0.47712413616367283
O O 0.6209611294117647 0.3686716431372549 0.1768649627450981 -0.2451302861358169
H H 0.6260483294117647 0.4298647764705883 0.5567356960784315 0.06317050098071665
C C 0.6417807294117648 0.4090830431372549 0.7295398294117649 0.33684127776839734
O O 0.7137551294117647 0.3905912431372549 0.6973974294117649 -0.24513029618665733
O O 0.2858871294117647 0.6070961098039216 0.6992798294117648 -0.24513029618665733
C C 0.35868499607843135 0.5896465764705883 0.7304171627450982 0.33684127776839734
H H 0.3729113960784314 0.5676579764705882 0.5579784294117649 0.06317050098071665
O O 0.37708999607843136 0.6275829764705882 0.1778041627450982 -0.24502892416499428
O O 0.384086662745098 0.6200172431372549 0.8109160294117648 -0.47712413616367283
O O 0.40286506274509803 0.715637243137255 0.2953032294117648 -0.47706132208135993
C C 0.4092937294117647 0.6378609098039215 0.2515532294117648 0.33963996437602584
C C 0.4298773294117647 0.5376131764705883 0.5918690960784315 -0.039919284644403905
H H 0.3334547294117647 0.6564618431372549 0.8303917627450983 0.2954081530233327
H H 0.6675713294117647 0.34331744313725493 0.830260562745098 0.2954081530233327
H H 0.365042662745098 0.7537767098039215 0.2582869627450981 0.29540927261634153
H H 0.6357585960784314 0.24654170980392157 0.2617656294117649 0.2954081530233327
F F 0.4215837960784314 0.6384690431372549 0.4382794294117648 -0.20399560071777062
