_cell_length_a  15
_cell_length_b  15
_cell_length_c  15

_cell_angle_alpha  90
_cell_angle_beta  90
_cell_angle_gamma  90

_symmetry_space_group_name_     'P 1'
_symmetry_space_group_name_H-M  'P 1'

loop_
_atom_site_label
_atom_site_type_symbol
_atom_site_fract_x
_atom_site_fract_y
_atom_site_fract_z
_atom_site_charge
H H 0.5101600972972973 0.4822048378378378 0.1823407045045044 0.0633935164001856
C C 0.5106162972972973 0.4842647045045045 0.25491243783783774 -0.03295570317406712
C C 0.5063180972972973 0.4858767045045045 0.4452735711711711 -0.0023042764046904566
C C 0.4695667639639639 0.5547730378378379 0.29996157117117117 0.07412200883662332
C C 0.5053910306306306 0.4829742378378378 0.544703971171171 -0.015507941769882697
C C 0.46859169729729727 0.5555727045045046 0.3939638378378378 0.0804712110927731
C C 0.43707589729729723 0.5222106378378378 0.688491971171171 0.06018085337266809
C C 0.5070208306306306 0.48366617117117117 0.7349207045045046 -0.03375658123230715
H H 0.5079264972972973 0.4832057711711712 0.8074011711711713 0.06337227987370657
C C 0.5464302306306307 0.41566383783783784 0.39709437117117113 -0.03922126084907275
C C 0.5502022972972973 0.41542217117117114 0.30326777117117115 0.06022236506085173
C C 0.5751666972972973 0.4415814378378379 0.6869074378378379 0.06018085337266809
H H 0.5750894972972973 0.35904423783783784 0.43235577117117113 0.06319024148718454
C C 0.5759476306306307 0.4443846378378378 0.5933519045045046 -0.039985868616870986
C C 0.5978804972972973 0.34420690450450453 0.25448937117117115 0.3368417633860015
O O 0.6071608306306306 0.2692646378378378 0.3030625045045044 -0.4771241348596978
O O 0.6237719639639641 0.36399643783783786 0.8135624378378379 -0.47712413616367283
O O 0.627301963963964 0.35021557117117114 0.1792129711711711 -0.24513029410441786
H H 0.6327826972972973 0.41517577117117116 0.5588559711711713 0.06316965501904571
C C 0.6479910306306306 0.3925265711711711 0.7322659711711711 0.3368412742233364
O O 0.7192558972972974 0.3737914378378378 0.6996970378378379 -0.24513029618665733
O O 0.2923059639639639 0.5896745045045045 0.7016075711711712 -0.24513029618665733
C C 0.3646146306306306 0.5716371711711712 0.7334672378378378 0.3368412742233364
H H 0.37513509729729727 0.5440641711711712 0.5634641045045043 0.06316965501904571
O O 0.3833899639639639 0.6048233045045046 0.17599063783783778 -0.2451061415884052
O O 0.3893988972972973 0.6024685711711711 0.8138061045045046 -0.47712413616367283
O O 0.41818729729729726 0.7044359045045047 0.28069557117117105 -0.4771091549092338
C C 0.4207046306306306 0.6217139045045046 0.2459998378378378 0.337642616275314
C C 0.4348049639639639 0.5179129045045046 0.5953837711711711 -0.039985868616870986
H H 0.3384510306306306 0.6390315045045045 0.8323626378378378 0.2954081530233327
H H 0.6745014972972974 0.3276449045045045 0.8331067711711714 0.2954081530233327
H H 0.37073969729729733 0.7346732378378379 0.2472255711711711 0.2954083960793794
H H 0.6404234306306306 0.2287515045045045 0.26434677117117117 0.2954081530233327
C C 0.4266378972972973 0.6330963045045046 0.44130990450450447 0.33819683355710267
O O 0.3509456306306306 0.6572543045045046 0.4223907045045045 -0.24508545467427825
O O 0.4716392306306306 0.6756313045045045 0.5066921711711712 -0.4770963380790316
H H 0.44647169729729724 0.7271640378378379 0.5360571711711711 0.29540862723026595
