_cell_length_a  15
_cell_length_b  15
_cell_length_c  15

_cell_angle_alpha  90
_cell_angle_beta  90
_cell_angle_gamma  90

_symmetry_space_group_name_     'P 1'
_symmetry_space_group_name_H-M  'P 1'

loop_
_atom_site_label
_atom_site_type_symbol
_atom_site_fract_x
_atom_site_fract_y
_atom_site_fract_z
_atom_site_charge
H H 0.5021348777777778 0.48743854259259256 0.18395720925925924 0.06343146018334829
C C 0.5025354777777777 0.48866780925925923 0.2565770759259259 -0.03196737863105914
C C 0.503115611111111 0.49099700925925926 0.4459131425925926 0.00437657639742899
C C 0.4638888777777777 0.5601392092592593 0.3026910759259259 0.08075172679173485
C C 0.5028506111111111 0.4878395425925926 0.5454222092592592 -0.014538580987955105
C C 0.4715779444444444 0.5657205425925925 0.3967654092592593 0.0465117669626809
C C 0.43498827777777777 0.5288090092592593 0.6883564092592593 0.06018135211553348
C C 0.5049492111111111 0.48945580925925924 0.7349572092592592 -0.03375657701412764
H H 0.5064844111111111 0.4910731425925926 0.8073322759259258 0.06337227987370657
C C 0.5404332111111111 0.4197253425925926 0.39727027592592584 -0.03824984613973534
C C 0.5437682777777777 0.4201888759259259 0.3040081425925926 0.06029663007223494
C C 0.5731824777777778 0.44788607592592594 0.6870642759259259 0.06018135211553348
H H 0.5699147444444445 0.3633969425925926 0.4324922759259259 0.06322748317895413
C C 0.5736157444444444 0.45035274259259256 0.593378075925926 -0.039948727225505146
C C 0.5943300777777778 0.3508826759259259 0.2549106092592593 0.33684279383062665
O O 0.6051919444444444 0.2761173425925926 0.30314880925925924 -0.47712413189080116
O O 0.6215037444444445 0.36997507592592593 0.8126070092592592 -0.47712413616367283
O O 0.6244657444444445 0.3582798092592593 0.18001654259259253 -0.2451302893635651
H H 0.6304153444444444 0.4212890092592593 0.5584501425925926 0.06317014868218332
C C 0.6462244777777778 0.39980640925925925 0.731887475925926 0.33684127633242616
O O 0.7181880111111112 0.38110067592592595 0.6995288092592593 -0.24513029618665733
O O 0.2912194111111111 0.5984116092592592 0.700372075925926 -0.24513029618665733
C C 0.36293201111111106 0.5792482759259259 0.7331102092592592 0.33684127633242616
H H 0.3738576111111111 0.5503277425925925 0.5620863425925926 0.06317014868218332
O O 0.38537301111111105 0.6167442092592592 0.17428800925925927 -0.2450630370324915
O O 0.38772354444444446 0.6098546759259258 0.8134052759259259 -0.47712413616367283
O O 0.4055568777777777 0.7068266759259259 0.2910942759259259 -0.4770824667419707
C C 0.4155714777777778 0.6280971425925925 0.24870794259259257 0.3386316921497199
C C 0.4318716111111111 0.5236035425925926 0.5956668759259258 -0.039948727225505146
H H 0.33737554444444445 0.6471210092592592 0.8320468092592593 0.2954081530233327
H H 0.6720470777777778 0.33341694259259264 0.8320552092592592 0.2954081530233327
H H 0.3687937444444444 0.7431692092592592 0.25110514259259253 0.29540890760154714
H H 0.6401616111111111 0.23660000925925928 0.26457820925925923 0.2954081530233327
N N 0.44004914444444443 0.6408768759259259 0.4467870759259259 -0.3568582598110982
H H 0.38759207777777777 0.6808354759259259 0.42953660925925924 0.14235777819610407
H H 0.46611614444444444 0.6557250092592591 0.5084254759259259 0.14235777819610407
