_cell_length_a  15
_cell_length_b  15
_cell_length_c  15

_cell_angle_alpha  90
_cell_angle_beta  90
_cell_angle_gamma  90

_symmetry_space_group_name_     'P 1'
_symmetry_space_group_name_H-M  'P 1'

loop_
_atom_site_label
_atom_site_type_symbol
_atom_site_fract_x
_atom_site_fract_y
_atom_site_fract_z
_atom_site_charge
H H 0.5142695315315315 0.4842198522522523 0.18517237657657665 0.06338445191870232
C C 0.5125119981981983 0.4863453189189189 0.2578195099099099 -0.03320793285985785
C C 0.5032441981981982 0.48915865225225225 0.44747810990990994 -0.004640310703065927
C C 0.47000586486486484 0.556846118918919 0.30187837657657657 0.07179938247329574
C C 0.5059058648648649 0.4843954522522523 0.5474348432432433 -0.0157552497318944
C C 0.46374893153153157 0.5607734522522523 0.39689777657657654 0.07644586834532036
C C 0.4395013981981982 0.5230837189189189 0.6929753765765765 0.06018073675926962
C C 0.511664864864865 0.4878857855855856 0.7382361099099097 -0.03375658220973719
H H 0.5139135981981983 0.4897105855855856 0.8105493765765764 0.06337227987370657
C C 0.5453257981981982 0.41874211891891894 0.3994784432432432 -0.03946905749899931
C C 0.5506487981981982 0.41754965225225227 0.3065702432432432 0.060204612887492806
C C 0.5790456648648649 0.4466140522522523 0.6890528432432432 0.06018073675926962
H H 0.5747585315315316 0.36270725225225225 0.4357041765765767 0.06318134634470862
C C 0.5784350648648648 0.44867878558558566 0.5949617099099099 -0.03999474569182925
C C 0.5990042648648649 0.34621765225225226 0.25831337657657655 0.3368415224434579
O O 0.6067618648648648 0.27100891891891893 0.3064340432432433 -0.47712413554765465
O O 0.6254297981981982 0.3655075855855856 0.8138869099099099 -0.47712413616367283
O O 0.6293343315315315 0.3522629189189189 0.1833906432432433 -0.24513029520297494
H H 0.6350597981981981 0.4190365855855856 0.5603467099099099 0.0631695396036025
C C 0.6513367315315315 0.39732438558558564 0.7342754432432431 0.33684127373462136
O O 0.7233655315315315 0.37895011891891894 0.7020422432432433 -0.24513029618665733
O O 0.2942661315315315 0.5901343855855856 0.7044687099099101 -0.24513029618665733
C C 0.36665993153153154 0.5732043855855856 0.7368253765765764 0.33684127373462136
H H 0.3702608648648649 0.5259468522522522 0.5711087099099098 0.0631695396036025
O O 0.36857133153153154 0.5986859855855856 0.18772897657657653 -0.24511644086810488
O O 0.39183693153153154 0.6069493189189189 0.8158395765765766 -0.47712413616367283
O O 0.44607533153153156 0.7058031855855856 0.25778164324324326 -0.477115533266236
C C 0.42501759819819823 0.6205701855855856 0.24153470990990986 0.3373902049109665
C C 0.4345757981981982 0.5126827855855856 0.6003974432432433 -0.03999474569182925
H H 0.3410653315315315 0.6441723855855856 0.8336288432432433 0.2954081530233327
H H 0.6754787315315316 0.3284961855855856 0.8338667099099101 0.2954081530233327
H H 0.38980719819819826 0.7381408522522522 0.2465878432432433 0.2954082764822174
H H 0.6403010648648648 0.2306135855855856 0.26738130990990994 0.2954081530233327
C C 0.41722253153153155 0.6393822522522523 0.4468503765765765 0.4187439771695796
F F 0.4642167315315316 0.6622824522522524 0.5227217765765765 -0.16585519604719626
F F 0.41123373153153153 0.719289318918919 0.4040645765765766 -0.16585519604719626
F F 0.33013833153153155 0.616626918918919 0.46631477657657666 -0.16585519604719626
