_cell_length_a  15
_cell_length_b  15
_cell_length_c  15

_cell_angle_alpha  90
_cell_angle_beta  90
_cell_angle_gamma  90

_symmetry_space_group_name_     'P 1'
_symmetry_space_group_name_H-M  'P 1'

loop_
_atom_site_label
_atom_site_type_symbol
_atom_site_fract_x
_atom_site_fract_y
_atom_site_fract_z
_atom_site_charge
H H 0.5109312907407407 0.4898918722222222 0.18302436851851855 0.06344093817236883
C C 0.5102197574074074 0.49207647222222217 0.2557735685185186 -0.03153127624934115
C C 0.5041681574074074 0.4936724722222222 0.44656590185185185 0.013946696306182654
C C 0.46854789074074077 0.5624732055555555 0.30031383518518523 0.09029552573755502
C C 0.5027934907407408 0.4896064722222222 0.5461734351851852 -0.014111665814903258
C C 0.4666530240740741 0.5630923388888889 0.39413530185185197 0.14780551803224995
C C 0.43427409074074075 0.5269553388888889 0.6902821685185184 0.060181444916730796
C C 0.5049686907407407 0.48845020555555557 0.7362813685185184 -0.033756576344549205
H H 0.5061386907407407 0.48936373888888884 0.8086417685185185 0.06337227987370657
C C 0.544769424074074 0.42369320555555556 0.3983077685185185 -0.03782244318763084
C C 0.5493065574074073 0.4231530722222222 0.3046920351851853 0.060315321192187354
C C 0.5735736907407407 0.44844167222222214 0.6880468351851852 0.060181444916730796
H H 0.5733587574074073 0.36708333888888883 0.4339103018518519 0.06323676994257994
C C 0.5736473574074074 0.45193013888888883 0.5945789685185187 -0.03993939162335358
C C 0.5969396907407406 0.3512508722222222 0.2563097018518519 0.3368429856492024
O O 0.6055278907407406 0.2769746055555556 0.305638101851852 -0.4771241314195349
O O 0.6221600907407406 0.37036993888888886 0.8137249685185186 -0.47712413616367283
O O 0.6259081574074074 0.3564082722222222 0.1807947685185186 -0.24513028861102837
H H 0.6315408907407407 0.42380613888888885 0.5598549685185186 0.06317024040466408
C C 0.646874624074074 0.40022660555555556 0.732952501851852 0.33684127666721536
O O 0.7189946907407407 0.3822824722222222 0.7006371018518518 -0.24513029618665733
O O 0.2879959574074074 0.5914267388888889 0.7044555685185186 -0.24513029618665733
C C 0.36130202407407414 0.5754300722222222 0.7357621018518521 0.33684127666721536
H H 0.37128982407407407 0.5481456055555556 0.5656846351851853 0.06317024040466408
O O 0.3831479574074074 0.6145444722222222 0.17612596851851864 -0.24505224809231604
O O 0.38711395740740745 0.6081924722222223 0.8148841685185186 -0.47712413616367283
O O 0.4244669574074074 0.7111926055555554 0.2823837685185186 -0.47707576713167976
C C 0.4219100240740741 0.6298639388888889 0.24530256851851853 0.3390680160569521
C C 0.4314574240740741 0.5224298055555555 0.5969655685185186 -0.03993939162335358
H H 0.33680855740740745 0.6456645388888889 0.8334385018518519 0.2954081530233327
H H 0.6727373574074073 0.3342238055555555 0.8340214351851852 0.2954081530233327
H H 0.37725129074074076 0.7461954722222222 0.2534303685185185 0.295409002636226
H H 0.6385533574074073 0.23550887222222222 0.2673331685185186 0.2954081530233327
N N 0.42411809074074075 0.6358730055555556 0.4393913018518519 0.05784533068282496
O O 0.35015862407407405 0.6580681388888888 0.4198106351851852 -0.12609836126545168
O O 0.46039169074074077 0.6720380055555555 0.500370501851852 -0.12609836126545168
