_cell_length_a  15
_cell_length_b  15
_cell_length_c  15

_cell_angle_alpha  90
_cell_angle_beta  90
_cell_angle_gamma  90

_symmetry_space_group_name_     'P 1'
_symmetry_space_group_name_H-M  'P 1'

loop_
_atom_site_label
_atom_site_type_symbol
_atom_site_fract_x
_atom_site_fract_y
_atom_site_fract_z
_atom_site_charge
C C 0.3791027814814816 0.5655983555555556 0.49524146296296295 -0.060032958527628376
H H 0.38805738148148156 0.5595210222222223 0.35219192962962964 0.06265317310233749
C C 0.5433185814814814 0.4773020888888889 0.49672019629629627 0.15126303310949948
O O 0.5082315814814814 0.48801215555555566 0.25603326296296297 -0.24502918537187143
H H 0.3858930481481482 0.560788288888889 0.6381759962962962 0.06265317310233749
H H 0.31561178148148156 0.6007276222222223 0.49465112962962965 0.061801124039048194
O O 0.49683638148148146 0.49349515555555556 0.7338013296296296 -0.4770614851072337
C C 0.5030091814814815 0.4986086222222223 0.4153187296296296 0.09471386086664146
C C 0.4204867814814815 0.5427671555555557 0.4150449296296296 -0.044934038558595714
O O 0.6200769148148149 0.441386888888889 0.6705731296296296 -0.24502918537187143
C C 0.5436095814814814 0.47615362222222235 0.32822506296296294 0.3396214905221502
C C 0.5468579814814816 0.47486082222222226 0.6616485962962962 0.3396214905221502
C C 0.5017679148148149 0.4991149555555557 0.5771856629629629 0.09471386086664146
C C 0.4192654481481482 0.5432798222222223 0.5761859962962963 -0.044934038558595714
O O 0.6256685814814814 0.4412931555555556 0.33423572962962955 -0.4770614851072337
H H 0.5347375148148149 0.4735765555555556 0.7833904629629629 0.29540927170005904
H H 0.6444007814814814 0.4292377555555556 0.27288346296296295 0.29540927170005904
F F 0.6230677814814815 0.43427595555555565 0.49849292962962966 -0.20377737292789425
