_cell_length_a  15
_cell_length_b  15
_cell_length_c  15

_cell_angle_alpha  90
_cell_angle_beta  90
_cell_angle_gamma  90

_symmetry_space_group_name_     'P 1'
_symmetry_space_group_name_H-M  'P 1'

loop_
_atom_site_label
_atom_site_type_symbol
_atom_site_fract_x
_atom_site_fract_y
_atom_site_fract_z
_atom_site_charge
C C 0.380550837037037 0.5657426185185185 0.49552401481481484 -0.060120446815275355
H H 0.3889207037037037 0.5594888851851851 0.3530956814814815 0.06260905555650868
C C 0.5460177703703704 0.47595575185185185 0.49709501481481483 0.06886189310579449
O O 0.497066637037037 0.4822804851851851 0.25601201481481484 -0.24507950905004364
H H 0.3864715037037037 0.5609314851851851 0.6378489481481481 0.06260905555650868
H H 0.31699377037037035 0.6007711518518518 0.49479174814814814 0.06180004674946159
O O 0.49042983703703696 0.4950482185185185 0.7358162814814814 -0.4770926663254276
C C 0.5048214370370371 0.4980142851851852 0.41525628148148147 0.07787774861623807
C C 0.42194523703703707 0.5428752185185185 0.4158006814814815 -0.046309997176421404
O O 0.6182438370370371 0.4472647518518518 0.6822622814814814 -0.24507950905004364
C C 0.5395095037037037 0.4759148851851852 0.3250112814814815 0.3382450627866885
C C 0.5447813037037036 0.47739061851851855 0.6666124148148147 0.3382450627866885
C C 0.5035151037037038 0.4989385518518519 0.5782002148148148 0.07787774861623807
C C 0.42072023703703704 0.5433380185185185 0.5762360814814814 -0.046309997176421404
O O 0.6249463037037035 0.4490012851851851 0.3227982148148148 -0.4770926663254276
H H 0.5277584370370371 0.4768084185185186 0.7865654148148148 0.2954087137085693
H H 0.6383477037037039 0.43235681851851854 0.26112501481481487 0.2954087137085693
Cl Cl 0.648959837037037 0.4178785518518519 0.49994841481481483 -0.0818583092722045
