_cell_length_a  15
_cell_length_b  15
_cell_length_c  15

_cell_angle_alpha  90
_cell_angle_beta  90
_cell_angle_gamma  90

_symmetry_space_group_name_     'P 1'
_symmetry_space_group_name_H-M  'P 1'

loop_
_atom_site_label
_atom_site_type_symbol
_atom_site_fract_x
_atom_site_fract_y
_atom_site_fract_z
_atom_site_charge
C C 0.369508003508772 0.5714399684210527 0.49543142456140354 -0.060133322762115526
H H 0.3766862035087719 0.5638726350877192 0.35248155789473684 0.06260254865254052
C C 0.5345046701754385 0.4830286350877193 0.4966138912280702 0.07964312809955686
O O 0.4930743368421053 0.4920191017543859 0.25483449122807017 -0.24508692690980619
H H 0.3751172701754386 0.5648555017543858 0.6383322245614036 0.06260254865254052
H H 0.3065319368421053 0.6076119684210527 0.49495662456140355 0.06179987612479311
O O 0.4851003368421053 0.4987909684210525 0.7359500245614036 -0.4770972588737333
C C 0.4931148701754386 0.5040631684210526 0.41483335789473685 0.07693250832902952
C C 0.4101930701754386 0.547936901754386 0.41511535789473686 -0.04647705168471633
O O 0.6088200701754386 0.4484473684210526 0.6749907578947368 -0.24508692690980619
C C 0.5310882701754385 0.48201010175438597 0.32563409122807024 0.33807794416813824
C C 0.5355845368421053 0.48106836842105255 0.6643270912280702 0.33807794416813824
C C 0.49212240350877196 0.5046009017543859 0.5777344245614036 0.07693250832902952
C C 0.40933560350877196 0.548444501754386 0.5764030245614035 -0.04647705168471633
O O 0.6140979368421052 0.4490524350877193 0.32960615789473685 -0.4770972588737333
H H 0.5238827368421052 0.47845796842105265 0.7848294245614035 0.2954086253175545
H H 0.634525603508772 0.43310996842105265 0.2697416912280702 0.2954086253175545
C C 0.6191883368421053 0.43854396842105264 0.49824742456140353 0.10079539648041128
N N 0.6875238035087718 0.40264556842105254 0.49993695789473686 -0.19082585594065984
