_cell_length_a  15
_cell_length_b  15
_cell_length_c  15

_cell_angle_alpha  90
_cell_angle_beta  90
_cell_angle_gamma  90

_symmetry_space_group_name_     'P 1'
_symmetry_space_group_name_H-M  'P 1'

loop_
_atom_site_label
_atom_site_type_symbol
_atom_site_fract_x
_atom_site_fract_y
_atom_site_fract_z
_atom_site_charge
C C 0.35817051746031736 0.5770368698412699 0.4977220190476191 -0.06019239848553955
H H 0.3654298507936507 0.5703944031746032 0.3552067523809524 0.0625727860700497
C C 0.5255081174603173 0.48967573650793655 0.4983459523809524 -0.02254761276045727
O O 0.48003351746031747 0.5087796031746031 0.25524861904761903 -0.24512088632360166
H H 0.36463305079365077 0.5718204698412699 0.6397557523809524 0.0625727860700497
H H 0.29467791746031735 0.6119601365079366 0.49732908571428575 0.06179917237811181
O O 0.47026818412698407 0.5104506031746031 0.7382906190476191 -0.47711830774339925
C C 0.48164045079365075 0.5096892698412698 0.4165622190476191 0.06250616174597232
C C 0.39897565079365066 0.5536081365079365 0.4174471523809524 -0.047475812008272555
O O 0.5891897841269839 0.44406506984126987 0.6847535523809524 -0.24512088632360166
C C 0.5162931841269839 0.48779166984126987 0.32500655238095244 0.3370788612283723
C C 0.5206155174603174 0.4845027365079365 0.6689953523809523 0.3370788612283723
C C 0.4816642507936507 0.5100081365079365 0.5802886857142856 0.06250616174597233
C C 0.39883185079365074 0.5544097365079366 0.578140019047619 -0.047475812008272555
O O 0.5928564507936506 0.4419427365079365 0.3233967523809524 -0.47711830774339925
H H 0.504581384126984 0.4878253365079365 0.7892529523809523 0.29540826081339766
H H 0.610204784126984 0.43812560317460314 0.26051601904761906 0.29540826081339766
C C 0.6172195174603173 0.44561460317460316 0.4952603523809524 -0.03814512754348699
H H 0.6633587174603175 0.48909913650793657 0.4570429523809524 0.027794612948778268
H H 0.6118387841269842 0.3784801365079365 0.4646070857142857 0.027794612948778268
H H 0.6540085174603174 0.4347198698412698 0.5568315523809524 0.027794612948778268
