_cell_length_a  15
_cell_length_b  15
_cell_length_c  15

_cell_angle_alpha  90
_cell_angle_beta  90
_cell_angle_gamma  90

_symmetry_space_group_name_     'P 1'
_symmetry_space_group_name_H-M  'P 1'

loop_
_atom_site_label
_atom_site_type_symbol
_atom_site_fract_x
_atom_site_fract_y
_atom_site_fract_z
_atom_site_charge
C C 0.36658967666666675 0.5751580166666668 0.49739302333333335 -0.06007347029933262
H H 0.3739908100000001 0.5718259499999999 0.35458069 0.06263271843805394
C C 0.5303394766666668 0.48623968333333334 0.4964941566666667 0.15402133966647485
O O 0.47940801 0.4841256166666667 0.25732902333333335 -0.24505250884813318
H H 0.37288887666666665 0.5679030833333333 0.6395908233333334 0.06263271843805394
H H 0.30273607666666663 0.6097644166666666 0.49775382333333335 0.06180060284129116
O O 0.47925407666666664 0.5071052166666667 0.7362192233333335 -0.4770759298761414
C C 0.48966327666666676 0.50938395 0.41501329000000003 0.0897352597802068
C C 0.4073009433333333 0.5536534833333334 0.41659042333333335 -0.04550575540783413
O O 0.5921035433333333 0.43044734999999995 0.67888569 -0.24505250884813318
C C 0.5245341433333335 0.48843541666666673 0.3246998233333333 0.33904956430999755
C C 0.5267924766666667 0.47677908333333335 0.6661997566666666 0.33904956430999755
C C 0.4890642100000001 0.5054676166666666 0.5788280233333334 0.08973525978020681
C C 0.40699227666666665 0.5510730166666666 0.5776564900000001 -0.04550575540783413
O O 0.6127198766666668 0.47583081666666677 0.32306962333333333 -0.4770759298761414
H H 0.5111365433333332 0.4834982166666667 0.7884474233333333 0.2954090017217026
H H 0.6261160100000001 0.45024575 0.26431569 0.2954090017217026
N N 0.6128518100000001 0.43793475 0.4959061566666667 0.05805832326335299
O O 0.6210461433333333 0.3725532166666667 0.4511883566666667 -0.12609574785374542
O O 0.6744717433333333 0.46257535 0.53983849 -0.12609574785374542
