_cell_length_a  15
_cell_length_b  15
_cell_length_c  15

_cell_angle_alpha  90
_cell_angle_beta  90
_cell_angle_gamma  90

_symmetry_space_group_name_     'P 1'
_symmetry_space_group_name_H-M  'P 1'

loop_
_atom_site_label
_atom_site_type_symbol
_atom_site_fract_x
_atom_site_fract_y
_atom_site_fract_z
_atom_site_charge
C C 0.3719221859649122 0.5708454421052631 0.49511402807017546 -0.059978081445750835
H H 0.3819185192982456 0.5642006421052632 0.35233356140350874 0.06268088809710377
C C 0.5359421859649124 0.48073804210526316 0.4986787614035088 0.14476132795204708
O O 0.5008562526315788 0.4934983754385965 0.2561832280701754 -0.24499758618791875
H H 0.37721651929824546 0.5670246421052632 0.6378774947368421 0.06268088809710377
H H 0.3087411859649122 0.6067155754385964 0.49367756140350877 0.061801836260914976
O O 0.4841955192982456 0.49960970877192984 0.735973894736842 -0.4770419168767588
C C 0.4959363859649122 0.5023593754385965 0.4168952947368421 0.10091356182617638
C C 0.41341485263157896 0.5472597087719299 0.4155604947368421 -0.04417560185710864
O O 0.6105120526315788 0.45004857543859644 0.6797070280701755 -0.24499758618791875
C C 0.5352432526315789 0.48024970877192985 0.32855396140350884 0.34038021000323776
C C 0.5370557859649121 0.48140044210526317 0.6655940947368421 0.34038021000323776
C C 0.4937087859649122 0.5039885087719298 0.5788609614035087 0.10091356182617636
C C 0.41129131929824553 0.5486364421052632 0.5764735614035087 -0.044175601857108636
O O 0.6171081192982457 0.44356324210526316 0.33461449473684207 -0.4770419168767588
H H 0.5223330526315788 0.4807647087719298 0.7856946280701754 0.2954096406250792
H H 0.6338801859649122 0.4343068421052632 0.27186876140350874 0.2954096406250792
O O 0.6143402526315788 0.4363026421052631 0.5088164280701755 -0.5051185537043027
H H 0.6543835859649122 0.40848737543859653 0.46752176140350876 0.2921950796774696
