_cell_length_a  15
_cell_length_b  15
_cell_length_c  15

_cell_angle_alpha  90
_cell_angle_beta  90
_cell_angle_gamma  90

_symmetry_space_group_name_     'P 1'
_symmetry_space_group_name_H-M  'P 1'

loop_
_atom_site_label
_atom_site_type_symbol
_atom_site_fract_x
_atom_site_fract_y
_atom_site_fract_z
_atom_site_charge
C C 0.357249873015873 0.5764066571428572 0.4965275968253968 -0.06018501939781255
H H 0.36436760634920634 0.5684659238095239 0.35423333015873015 0.06257643506851528
C C 0.5260263396825396 0.4900473238095238 0.49794419682539687 0.08264578927684726
O O 0.484859673015873 0.5151020571428572 0.2555707968253968 -0.24511670043317063
H H 0.36223620634920645 0.5695889238095239 0.6386097968253969 0.06257643506851528
H H 0.29360987301587305 0.6110136571428572 0.4959495968253968 0.061799200994972395
O O 0.4724477396825397 0.5170375238095238 0.7374304634920634 -0.47711569526822195
C C 0.4807774063492064 0.5083599238095239 0.4162212634920635 0.0712333792070022
C C 0.39801973968253973 0.5523916571428572 0.41674733015873017 -0.0471829569416179
O O 0.5718708063492064 0.4237030571428572 0.6822121968253968 -0.24511670043317063
C C 0.5145094063492065 0.48540512380952383 0.32552599682539685 0.33737177873901625
C C 0.5147184063492065 0.4790911238095238 0.6680015301587301 0.33737177873901625
C C 0.48000760634920636 0.5089053238095239 0.5790463301587301 0.07123337920700222
C C 0.3973124063492064 0.5533335238095238 0.5768460634920634 -0.0471829569416179
O O 0.5811020063492064 0.4265295904761906 0.3249858634920635 -0.47711569526822195
H H 0.5016576730158729 0.4891253238095238 0.7890727301587301 0.2954082755730404
H H 0.607753073015873 0.4294983904761905 0.26531399682539686 0.2954082755730404
C C 0.6232043396825396 0.45572459047619057 0.4962511968253968 0.41894712427082426
F F 0.671577273015873 0.5040466571428571 0.4341849301587302 -0.16585204234465287
F F 0.6709018063492065 0.47049065714285726 0.5731746634920634 -0.16585204234465287
F F 0.6257907396825397 0.36573299047619057 0.4761501301587302 -0.16585204234465287
