_cell_length_a  15
_cell_length_b  15
_cell_length_c  15

_cell_angle_alpha  90
_cell_angle_beta  90
_cell_angle_gamma  90

_symmetry_space_group_name_     'P 1'
_symmetry_space_group_name_H-M  'P 1'

loop_
_atom_site_label
_atom_site_type_symbol
_atom_site_fract_x
_atom_site_fract_y
_atom_site_fract_z
_atom_site_charge
C C 0.37988863703703707 0.5645773962962963 0.49545567777777777 -0.06014635534313804
H H 0.3887099703703704 0.5598133962962962 0.3535867444444445 0.06259599247140371
C C 0.5466545703703704 0.47575459629629635 0.4972460111111111 0.04127487878327485
O O 0.49508530370370374 0.48644632962962964 0.25515221111111114 -0.24509441065636597
H H 0.38584443703703714 0.5607889962962963 0.6374886777777778 0.06259599247140371
H H 0.31563383703703707 0.5985105296296296 0.49501741111111114 0.06179972924084389
O O 0.48607823703703706 0.49524119629629637 0.7360688777777777 -0.47710190001661484
C C 0.5054576370370369 0.49832319629629634 0.4150772111111111 0.07268640187012507
C C 0.42210137037037043 0.5425755296296296 0.41592741111111114 -0.046721969082827774
O O 0.6160759703703704 0.44994226296296297 0.6883028111111111 -0.24509441065636597
C C 0.5388473703703706 0.478662262962963 0.3232056777777778 0.3378329522672566
C C 0.5425758370370369 0.47828806296296295 0.6690496777777778 0.3378329522672566
C C 0.5036479703703705 0.49833066296296297 0.5786845444444444 0.07268640187012507
C C 0.4206424370370371 0.5429307296296296 0.5760964777777778 -0.046721969082827774
O O 0.6235741703703704 0.4510726629629629 0.31833627777777784 -0.47710190001661484
H H 0.5225623037037039 0.4782017962962963 0.7878169444444444 0.2954085492489214
H H 0.6349276370370371 0.43493666296296296 0.25599161111111113 0.2954085492489214
I I 0.6716923037037039 0.4056037296296296 0.5014957444444444 -0.04213948488477721
