_cell_length_a  15
_cell_length_b  15
_cell_length_c  15

_cell_angle_alpha  90
_cell_angle_beta  90
_cell_angle_gamma  90

_symmetry_space_group_name_     'P 1'
_symmetry_space_group_name_H-M  'P 1'

loop_
_atom_site_label
_atom_site_type_symbol
_atom_site_fract_x
_atom_site_fract_y
_atom_site_fract_z
_atom_site_charge
C C 0.38006091851851864 0.5651685703703703 0.49605422962962964 -0.060142134345372814
H H 0.38775431851851855 0.5593397703703703 0.3536792296296296 0.06259812070580721
C C 0.546066051851852 0.475798637037037 0.4969120296296296 0.04577432202751584
O O 0.49617225185185193 0.48696290370370365 0.2549118962962963 -0.24509198288227393
H H 0.38676218518518524 0.5604995703703702 0.6382159629629629 0.06259812070580721
H H 0.31659251851851866 0.5999104370370371 0.49579722962962963 0.061799780974729324
O O 0.4896579851851853 0.49528857037037033 0.7364474962962964 -0.4771003956626526
C C 0.5043041851851853 0.4980085037037037 0.414968762962963 0.07353197793330056
C C 0.4214517185185186 0.5423341703703703 0.4161636296296296 -0.04665486509448237
O O 0.6178688518518519 0.4474469703703703 0.6845714296296296 -0.24509198288227393
C C 0.5386765185185187 0.47780877037037034 0.3233480296296296 0.3379000788086845
C C 0.5445697851851853 0.47750590370370366 0.6674852296296296 0.3379000788086845
C C 0.5041419851851853 0.4985947037037036 0.5786313629629629 0.07353197793330055
C C 0.42089265185185193 0.5428765037037037 0.5766026962962963 -0.04665486509448237
O O 0.6229878518518519 0.4492693037037037 0.3204151629629629 -0.4771003956626526
H H 0.5267034518518517 0.476745437037037 0.7873816296296297 0.2954085760456307
H H 0.6364746518518519 0.4335077037037036 0.2586278962962963 0.2954085760456307
Br Br 0.6588621185185186 0.4129335703703704 0.4997860962962963 -0.048614988364900594
