_cell_length_a  15
_cell_length_b  15
_cell_length_c  15

_cell_angle_alpha  90
_cell_angle_beta  90
_cell_angle_gamma  90

_symmetry_space_group_name_     'P 1'
_symmetry_space_group_name_H-M  'P 1'

loop_
_atom_site_label
_atom_site_type_symbol
_atom_site_fract_x
_atom_site_fract_y
_atom_site_fract_z
_atom_site_charge
C C 0.3647007866666667 0.5764925866666668 0.49601971666666667 -0.06009230609926532
H H 0.37259472000000005 0.5693437866666667 0.35325791666666667 0.06262327612117637
C C 0.5302023200000001 0.4853697866666667 0.49706504999999995 0.05277955015261761
O O 0.4890675866666669 0.49862352 0.25497311666666667 -0.24506329761232412
H H 0.37186185333333344 0.57214952 0.63857765 0.06262327612117637
H H 0.3014103200000001 0.6119517866666667 0.49543804999999996 0.06180041927100758
O O 0.47909212000000007 0.5024504533333334 0.7358363833333333 -0.47708262937725426
C C 0.4871188533333334 0.5065813866666666 0.41559531666666666 0.08018582802698163
C C 0.40528758666666675 0.5524601199999999 0.4158879833333333 -0.04594199584730497
O O 0.6066339866666667 0.4593483866666667 0.6748127833333333 -0.24506329761232412
C C 0.5253155866666667 0.48508278666666665 0.32633898333333333 0.3386132047076121
C C 0.5310316533333335 0.48696191999999994 0.6643371833333334 0.3386132047076121
C C 0.4873607866666667 0.5089503866666667 0.5777623833333333 0.08018582802698161
C C 0.40517978666666676 0.5543574533333334 0.5766287833333333 -0.04594199584730496
O O 0.6084275866666667 0.4504363866666667 0.32895158333333335 -0.47708262937725426
H H 0.5173711866666667 0.48395405333333336 0.7856915166666667 0.2954089066887353
H H 0.6235434533333333 0.43996838666666666 0.26618604999999995 0.2954089066887353
N N 0.6116882533333334 0.4349327866666667 0.49742145 -0.35669435567711766
H H 0.6602172533333336 0.43770545333333327 0.5448973833333334 0.14236005346875671
H H 0.6218943200000001 0.38287905333333333 0.4543207166666666 0.14236005346875671
