_cell_length_a  15
_cell_length_b  15
_cell_length_c  15

_cell_angle_alpha  90
_cell_angle_beta  90
_cell_angle_gamma  90

_symmetry_space_group_name_     'P 1'
_symmetry_space_group_name_H-M  'P 1'

loop_
_atom_site_label
_atom_site_type_symbol
_atom_site_fract_x
_atom_site_fract_y
_atom_site_fract_z
_atom_site_charge
C C 0.3506837714285714 0.5757622253968254 0.4971769238095238 -0.06016713242546288
H H 0.3582557714285714 0.5696792253968255 0.3542285238095238 0.06258546717868818
C C 0.5157017714285714 0.4892026253968255 0.49768172380952375 0.08667459646337686
O O 0.47382430476190485 0.4979521587301588 0.25633725714285716 -0.24510640134193584
H H 0.3571691047619048 0.5699282253968255 0.6399165238095238 0.06258546717868818
H H 0.2865810380952381 0.6098486253968255 0.49691859047619047 0.061799431860891756
O O 0.4657653714285714 0.5021084920634921 0.7360756571428572 -0.477109317028784
C C 0.47490123809523815 0.5102706920634922 0.4159457238095238 0.0735564565311495
C C 0.39188850476190473 0.5536857587301588 0.41670285714285715 -0.04693064415516983
O O 0.5926514380952381 0.4564983587301588 0.6762750571428572 -0.24510640134193584
C C 0.5127579714285714 0.4874238920634922 0.3270628571428571 0.3376241823951646
C C 0.518319438095238 0.48653309206349216 0.6650577904761905 0.3376241823951646
C C 0.4744250380952382 0.5101456253968255 0.5791153238095238 0.07355645653114952
C C 0.39141303809523814 0.5535122253968255 0.5779833238095239 -0.04693064415516983
O O 0.5953324380952381 0.45435482539682553 0.3289383904761904 -0.477109317028784
H H 0.5031219047619049 0.4826059587301588 0.7861541238095238 0.29540839516943906
H H 0.6107696380952381 0.4387702920634921 0.2675495238095238 0.29540839516943906
C C 0.6034934380952381 0.44241495873015874 0.49994852380952376 0.3384051572505285
O O 0.6088897047619047 0.3671730253968254 0.5311557904761905 -0.24508248418946543
O O 0.6780471047619048 0.48498722539682537 0.4727823238095238 -0.47709448414846534
H H 0.7360079714285716 0.45714249206349217 0.4769931904761905 0.295408637691493
