_cell_length_a  15
_cell_length_b  15
_cell_length_c  15

_cell_angle_alpha  90
_cell_angle_beta  90
_cell_angle_gamma  90

_symmetry_space_group_name_     'P 1'
_symmetry_space_group_name_H-M  'P 1'

loop_
_atom_site_label
_atom_site_type_symbol
_atom_site_fract_x
_atom_site_fract_y
_atom_site_fract_z
_atom_site_charge
C C 0.3712818526315791 0.5670242842105263 0.4925064807017544 -0.060141582170862753
H H 0.3823252526315791 0.5605234175438596 0.35058848070175436 0.0625984074561577
C C 0.5337126526315792 0.4699052842105263 0.49801214736842103 0.03270387270144485
O O 0.4918403859649125 0.48477061754385964 0.2554086807017544 -0.2450916584810815
H H 0.37656205263157905 0.5663221508771931 0.6348602140350876 0.0625984074561577
H H 0.30704171929824575 0.6009300175438597 0.4909482140350877 0.06179979495114002
O O 0.47279605263157903 0.4937376842105263 0.7348242807017543 -0.4771001968319909
C C 0.495653452631579 0.4960172842105264 0.41524361403508775 0.0727297422343959
C C 0.4142589192982458 0.543672750877193 0.4138333473684211 -0.04666720584230273
O O 0.6070388526315791 0.4608016842105263 0.6862052807017543 -0.2450916584810815
C C 0.5324379192982458 0.476283750877193 0.32527941403508775 0.33788773830094837
C C 0.5313840526315791 0.48202281754385967 0.6679192807017543 0.33788773830094837
C C 0.4917535859649123 0.49888381754385963 0.5778924807017544 0.07272974223439592
C C 0.4106597859649124 0.5462625508771931 0.5738488140350877 -0.04666720584230273
O O 0.6180899859649124 0.450575550877193 0.3248705473684211 -0.4771001968319909
H H 0.5093298526315789 0.4786954175438597 0.787090347368421 0.29540858329231234
H H 0.6296415859649123 0.43453061754385974 0.26254714736842105 0.29540858329231234
S S 0.6356100526315792 0.4057902842105264 0.5037438807017544 -0.14103905651014081
H H 0.6885819859649125 0.4832500175438597 0.5043773473684211 0.1071461507715401
