_cell_length_a  15
_cell_length_b  15
_cell_length_c  15

_cell_angle_alpha  90
_cell_angle_beta  90
_cell_angle_gamma  90

_symmetry_space_group_name_     'P 1'
_symmetry_space_group_name_H-M  'P 1'

loop_
_atom_site_label
_atom_site_type_symbol
_atom_site_fract_x
_atom_site_fract_y
_atom_site_fract_z
_atom_site_charge
C C 0.39032055098039214 0.4513328411764706 0.6115282764705883 0.3384275694613297
C C 0.4529874843137255 0.30902970784313716 0.5483845431372549 0.02796513380133096
O O 0.40865828431372553 0.4400029078431372 0.6985662098039216 -0.477088735249381
H H 0.5036131509803922 0.1929615078431373 0.47849880980392157 0.0628285627847786
C C 0.5022072843137255 0.26542190784313724 0.4825066098039217 -0.04700461626791863
C C 0.39159995098039224 0.5604151745098039 0.3561938098039216 0.33741615749482406
C C 0.4501864176470588 0.4024267745098039 0.5502144098039216 0.08039228611391153
O O 0.3992902176470589 0.5782916411764707 0.27743307647058824 -0.24510936701930836
C C 0.5490179509803922 0.3142684411764705 0.41881567647058826 -0.04616015338666553
C C 0.49863995098039215 0.45339344117647046 0.4864908764705883 0.012613832200158841
H H 0.5855812176470588 0.27973317450980395 0.36639727647058834 0.06261358872883811
C C 0.4470625509803921 0.6026900411764705 0.4263996764705883 0.06733614832700432
C C 0.5490479509803923 0.4073221078431372 0.4219104764705882 0.06739811159635051
H H 0.41453821764705884 0.733670174509804 0.3760678764705883 0.06258288187005605
C C 0.49701501764705885 0.5524727745098038 0.48833647647058825 0.011636926198604076
C C 0.4498415509803922 0.6961328411764707 0.4272004098039216 -0.04713862473187801
O O 0.5921139509803922 0.4415994411764706 0.2739001431372549 -0.24510936345411147
C C 0.6027292176470589 0.45364437450980405 0.35338247647058824 0.3374169580018202
C C 0.5458581509803921 0.6002193078431373 0.553361143137255 0.06733614832700432
C C 0.4980257509803922 0.7411792411764705 0.49262367647058825 -0.06017236055281206
O O 0.5870920843137255 0.5673462411764706 0.6996356098039216 -0.47711116795881414
H H 0.49943981764705886 0.8136905078431373 0.49300734313725497 0.06179941161020371
C C 0.6059375509803923 0.551620374509804 0.6138524098039216 0.33741615749482406
C C 0.5452692176470588 0.6933875078431373 0.5566644764705884 -0.04713862473187801
O O 0.6671471509803922 0.5053331078431372 0.38889274313725497 -0.4771111657261565
O O 0.6619488843137254 0.49854277450980383 0.5884782098039216 -0.24510936701930836
H H 0.5836974843137256 0.7286832411764707 0.606984743137255 0.06258288187005605
O O 0.3310209509803922 0.5031380411764705 0.3898128764705883 -0.47711116795881414
O O 0.3339408176470588 0.5022521078431372 0.5820207431372549 -0.24507316613593544
H H 0.3213296176470589 0.5080192411764706 0.45462394313725496 0.2954083847249347
H H 0.4518710843137255 0.39319210784313724 0.7119976764705883 0.29540878248960917
H H 0.6758813509803921 0.49950277450980374 0.4535068098039216 0.2954083847249347
H H 0.6286083509803922 0.5317403078431373 0.7353907431372549 0.2954083847249347
I I 0.3784808176470589 0.22734384117647058 0.636919743137255 -0.04295881235252683
