_cell_length_a  15
_cell_length_b  15
_cell_length_c  15

_cell_angle_alpha  90
_cell_angle_beta  90
_cell_angle_gamma  90

_symmetry_space_group_name_     'P 1'
_symmetry_space_group_name_H-M  'P 1'

loop_
_atom_site_label
_atom_site_type_symbol
_atom_site_fract_x
_atom_site_fract_y
_atom_site_fract_z
_atom_site_charge
C C 0.38874098431372545 0.4484067588235295 0.6125659803921569 0.3402184018001669
C C 0.45225325098039215 0.31065482549019613 0.5501287137254901 0.13797191131293454
O O 0.4046783176470588 0.43148649215686274 0.6991309803921569 -0.47704825734703965
H H 0.4998449843137255 0.1929138254901961 0.48430538039215676 0.06465379156101846
C C 0.5003014509803922 0.2652986254901961 0.4853167137254902 -0.02481854266226455
C C 0.39162991764705885 0.5597306921568627 0.3566195803921568 0.3374161605123345
C C 0.44995698431372555 0.4034062254901961 0.5506285803921569 0.10238351839545323
O O 0.39932231764705883 0.5770826254901962 0.27774644705882345 -0.24510936701930836
C C 0.5475588509803921 0.3131056254901961 0.4210445137254901 -0.04442706945142195
C C 0.4980745176470588 0.4537145588235295 0.48690811372549014 0.01440012241644979
H H 0.5838578509803921 0.27788422549019615 0.3689345803921568 0.0626690178943043
C C 0.44672678431372553 0.6022411588235296 0.4265505803921569 0.06733688283387763
C C 0.5482085176470588 0.4065157588235294 0.4231269137254902 0.06751065070407511
H H 0.4141185176470588 0.7331287588235293 0.37590598039215684 0.06258288187005605
C C 0.49646931764705887 0.5521930921568627 0.48872184705882343 0.011694642548208357
C C 0.4496808509803922 0.6955362254901961 0.4271012470588235 -0.04713862171436757
O O 0.5908722509803922 0.4406851588235295 0.2749863803921569 -0.24510935694354666
C C 0.6020643176470588 0.45238155882352943 0.3544569803921568 0.3374184173451382
C C 0.5457823843137254 0.5999443588235295 0.5537238470588235 0.06733688283387763
C C 0.4980679176470588 0.7403474921568628 0.49268931372549024 -0.06017236055281206
O O 0.5869573176470588 0.5669396921568629 0.6997883137254902 -0.47711116795881414
H H 0.49925231764705885 0.8128978254901962 0.4927969137254902 0.06179941161020371
C C 0.6055601843137255 0.5511883588235295 0.6139645137254902 0.3374161605123345
C C 0.5454317843137255 0.6928382921568627 0.5568287137254901 -0.04713862171436757
O O 0.6667354509803921 0.5038741588235295 0.3897715137254902 -0.477111161649001
O O 0.6613740509803921 0.4977774921568629 0.5884656470588235 -0.24510936701930836
H H 0.5837123176470588 0.7282859588235294 0.6068835803921568 0.06258288187005605
O O 0.33092365098039217 0.5024412921568628 0.39017924705882356 -0.47711116795881414
O O 0.3332599843137255 0.5008670921568628 0.5844179137254902 -0.2450078391659665
H H 0.32065818431372545 0.5075874254901962 0.4548740470588235 0.2954083847249347
H H 0.44994451764705884 0.386345225490196 0.7115966470588236 0.2954095060899903
H H 0.6756107843137256 0.49834102549019593 0.45443711372549017 0.2954083847249347
H H 0.6284592509803921 0.5313902254901961 0.7356743137254902 0.2954083847249347
F F 0.4039099176470588 0.2625678921568628 0.6097288470588235 -0.2046134951282508
