_cell_length_a  15
_cell_length_b  15
_cell_length_c  15

_cell_angle_alpha  90
_cell_angle_beta  90
_cell_angle_gamma  90

_symmetry_space_group_name_     'P 1'
_symmetry_space_group_name_H-M  'P 1'

loop_
_atom_site_label
_atom_site_type_symbol
_atom_site_fract_x
_atom_site_fract_y
_atom_site_fract_z
_atom_site_charge
C C 0.3986804594594595 0.4714140180180181 0.6016268846846847 0.33796554784931215
C C 0.4616785261261261 0.3298318846846847 0.5375526846846846 0.06936443174495362
O O 0.4184629261261262 0.46261155135135124 0.6884292846846847 -0.4771025542241105
H H 0.5142770594594595 0.21562315135135132 0.46636488468468473 0.06234599798347421
C C 0.5122919927927928 0.28823568468468463 0.47041448468468466 -0.04850809646940243
C C 0.39953012612612615 0.5824674846846847 0.3474928846846847 0.33741615629939953
C C 0.4591529261261261 0.423524018018018 0.5400554846846847 0.07893478475231501
O O 0.4067527927927928 0.5996612180180179 0.26855015135135135 -0.24510936701930836
C C 0.5590145261261262 0.3376119513513513 0.40760081801801806 -0.04660835224222877
C C 0.5073127261261262 0.4756393513513513 0.47678715135135136 0.012153321258253214
H H 0.5962674594594595 0.30381141801801803 0.3552487513513513 0.06259461460678067
C C 0.4551821927927929 0.6246918846846846 0.4172728180180181 0.0673358702811306
C C 0.5580841261261261 0.43038261801801797 0.4117607513513513 0.06735973164168785
H H 0.4220691927927928 0.7555034846846846 0.3671349513513513 0.06258288187005605
C C 0.5050523261261262 0.574506618018018 0.47932335135135146 0.011617249503569252
C C 0.4578283261261261 0.717980218018018 0.418011218018018 -0.04713862592730255
O O 0.6030646594594595 0.46592075135135125 0.26457015135135137 -0.24510936603320443
C C 0.6126355927927929 0.47694155135135125 0.3443444180180181 0.33741640551971974
C C 0.5540859261261262 0.6221096846846847 0.5443587513513514 0.0673358702811306
C C 0.5060787927927929 0.7629628180180179 0.483535418018018 -0.06017236055281206
O O 0.5956092594594595 0.5893162846846847 0.6908007513513514 -0.47711116795881414
H H 0.5074417261261261 0.8354456846846846 0.48379168468468464 0.06179941161020371
C C 0.6139631927927929 0.5735742846846847 0.6049331513513514 0.33741615629939953
C C 0.5535019261261261 0.7152521513513512 0.5475871513513514 -0.04713862592730255
O O 0.6775637261261261 0.5267395513513513 0.3815021513513513 -0.47711116734127956
O O 0.6692388594594595 0.5197420846846846 0.5798138846846848 -0.24510936701930836
H H 0.5918338594594594 0.7506812846846846 0.5979566180180179 0.06258288187005605
O O 0.33899532612612615 0.5252621513513512 0.38147681801801797 -0.47711116795881414
O O 0.34102092612612617 0.5204784846846846 0.5715713513513514 -0.24509549422223115
H H 0.32930259279279284 0.530172818018018 0.44628795135135135 0.2954083847249347
H H 0.4629804594594595 0.41837595135135125 0.7055076846846847 0.2954085083653635
H H 0.6857175261261261 0.518868618018018 0.4460364846846847 0.2954083847249347
H H 0.6370917927927928 0.5534422846846847 0.7263671513513513 0.2954083847249347
C C 0.40940225945945946 0.2667438846846847 0.597808218018018 0.41820210559382903
F F 0.3532741927927929 0.3083046846846846 0.6576051513513513 -0.16587712286977313
F F 0.35694145945945954 0.21188461801801803 0.5453447513513513 -0.16587712286977313
F F 0.46861825945945945 0.21428381801801802 0.6451737513513512 -0.16587712286977313
