_cell_length_a  15
_cell_length_b  15
_cell_length_c  15

_cell_angle_alpha  90
_cell_angle_beta  90
_cell_angle_gamma  90

_symmetry_space_group_name_     'P 1'
_symmetry_space_group_name_H-M  'P 1'

loop_
_atom_site_label
_atom_site_type_symbol
_atom_site_fract_x
_atom_site_fract_y
_atom_site_fract_z
_atom_site_charge
C C 0.39192398857142857 0.46061486285714265 0.6088803733333331 0.34097826958644933
C C 0.45574678857142853 0.31958272952380945 0.5500388399999998 0.13145206074118046
O O 0.4089803219047619 0.4452847295238095 0.69564184 -0.4770286572175924
H H 0.5027500552380952 0.20079732952380938 0.48312117333333315 0.06543681197227937
C C 0.5020785219047619 0.27323712952380946 0.48468024 -0.018544967303071102
C C 0.39399252190476186 0.568498796190476 0.3527231066666666 0.33741616209005104
C C 0.4527896552380952 0.4128119961904762 0.5478452399999999 0.10857801770653713
O O 0.4004750552380952 0.586269996190476 0.2740316399999999 -0.24510936701930836
C C 0.5487769885714286 0.3199333295238095 0.41918183999999986 -0.043690778091510396
C C 0.5008445219047618 0.4621047295238094 0.48314323999999986 0.015157815853873699
H H 0.5845443885714285 0.2841860628571428 0.3671859733333332 0.06269589973564382
C C 0.4499862552380952 0.6106471295238093 0.4222493733333332 0.06733725779104532
C C 0.5502897885714285 0.4137103295238095 0.41992550666666656 0.0675651227105686
H H 0.4164856552380952 0.7414342628571426 0.37234543999999986 0.06258288187005605
C C 0.4999961885714285 0.5605274628571428 0.48436670666666654 0.01172257154502601
C C 0.4527037885714285 0.7038207295238094 0.4230189733333332 -0.04713862013665101
O O 0.5948832552380952 0.4452196628571427 0.27162330666666656 -0.2451093535392612
C C 0.6050477885714286 0.45838619619047627 0.3510306399999998 0.3374191624319181
C C 0.5489688552380952 0.6082943295238095 0.5491305733333331 0.06733725779104532
C C 0.5009893885714285 0.7490897961904761 0.4885730399999998 -0.06017236055281206
O O 0.5911477219047618 0.5767549295238095 0.6956957066666666 -0.47711116795881414
H H 0.5020446552380952 0.8214978628571429 0.48878150666666653 0.06179941161020371
C C 0.6090883219047619 0.5596344628571429 0.6099980399999997 0.33741616209005104
C C 0.548589921904762 0.7015309295238096 0.5523751066666664 -0.04713862013665101
O O 0.669381321904762 0.510582396190476 0.3860954399999999 -0.4771111595171121
O O 0.6645659885714286 0.506126996190476 0.5847137733333331 -0.24510936701930836
H H 0.5867747885714285 0.7367861295238094 0.6026821066666666 0.06258288187005605
O O 0.33278032190476187 0.5117679295238095 0.38719703999999994 -0.47711116795881414
O O 0.3372476552380952 0.5132843961904763 0.5799215066666664 -0.2449761884790243
H H 0.3241947219047619 0.516565396190476 0.4521367733333332 0.2954083847249347
H H 0.4473492552380952 0.3933415295238094 0.70530164 0.29540987560806675
H H 0.6776088552380952 0.5058059295238094 0.4509269066666665 0.2954083847249347
H H 0.6312629885714285 0.5397007961904762 0.7315443733333332 0.2954083847249347
O O 0.4083533219047618 0.2733376628571428 0.6111675733333333 -0.5059246732285226
H H 0.40735638857142853 0.20883106285714276 0.6127254399999998 0.29216367097959717
