_cell_length_a  15
_cell_length_b  15
_cell_length_c  15

_cell_angle_alpha  90
_cell_angle_beta  90
_cell_angle_gamma  90

_symmetry_space_group_name_     'P 1'
_symmetry_space_group_name_H-M  'P 1'

loop_
_atom_site_label
_atom_site_type_symbol
_atom_site_fract_x
_atom_site_fract_y
_atom_site_fract_z
_atom_site_charge
C C 0.3977568576576577 0.47318475495495493 0.6011209153153153 0.3382183265858115
C C 0.4635474576576577 0.33232102162162164 0.5361765819819819 0.0733903194038517
O O 0.419266190990991 0.46728835495495497 0.6878370486486486 -0.47709616556895384
H H 0.5156057243243244 0.21977242162162167 0.4609007819819819 0.06260593771210585
C C 0.5129026576576577 0.29194595495495496 0.46763144864864853 -0.04616088410776436
C C 0.400192390990991 0.5856560882882883 0.3477065153153153 0.3374161568098475
C C 0.4591571243243243 0.42578882162162157 0.5399149819819818 0.08125527030978331
O O 0.40814752432432433 0.6028198882882881 0.2687671819819819 -0.24510936701930836
C C 0.5591551243243243 0.3423156882882882 0.40546984864864855 -0.04636353447656089
C C 0.5071190576576577 0.4789527549549548 0.47704471531531517 0.012405391807091385
H H 0.5963229243243243 0.30906015495495504 0.35271458198198197 0.06260337263334262
C C 0.4553757243243243 0.6279078216216216 0.41773964864864865 0.06733599183021172
C C 0.5581025243243244 0.4347901549549549 0.4112580486486486 0.06737748442661795
H H 0.4238659243243243 0.7587733549549551 0.36669684864864854 0.06258288187005605
C C 0.5048694576576577 0.5776932216216216 0.4800422486486486 0.011626353115434088
C C 0.4585823243243244 0.7209142882882883 0.4181263819819819 -0.0471386254168546
O O 0.6030403243243243 0.46990515495495494 0.26422371531531524 -0.24510936493193852
C C 0.612536190990991 0.4818322882882883 0.3438391819819819 0.3374166470181712
C C 0.554307590990991 0.6252213549549548 0.5447476486486487 0.06733599183021172
C C 0.5062800576576577 0.7657653549549549 0.48442278198198185 -0.06017236055281206
O O 0.5969539909909911 0.5932503549549548 0.6908923153153153 -0.47711116795881414
H H 0.5086651909909911 0.8380020216216215 0.4838302486486486 0.06179941161020371
C C 0.6145748576576577 0.5765082216216215 0.6050957819819819 0.3374161568098475
C C 0.5547256576576577 0.7180098882882884 0.547878181981982 -0.0471386254168546
O O 0.6770580576576576 0.5321903549549549 0.3808633819819819 -0.4771111666516263
O O 0.6699710576576577 0.5229032882882882 0.5793862486486485 -0.24510936701930836
H H 0.5927529909909911 0.7537144216216216 0.597955781981982 0.06258288187005605
O O 0.3397935243243244 0.5279432882882883 0.3812005153153153 -0.47711116795881414
O O 0.341534390990991 0.5238730882882883 0.5706713819819819 -0.24508517831442095
H H 0.32958285765765777 0.533205554954955 0.44599678198198184 0.2954083847249347
H H 0.45220919099099105 0.4138618216216217 0.7052777153153152 0.2954086281551033
H H 0.6849798576576577 0.5251146882882884 0.4453838486486486 0.2954083847249347
H H 0.6374852576576576 0.5566255549549549 0.7266806486486485 0.2954083847249347
C C 0.41182805765765773 0.2709699549549549 0.5960237819819819 0.3376219569946217
O O 0.35703265765765774 0.29935722162162165 0.6491584486486486 -0.24510641140926487
O O 0.4236748576576577 0.18184762162162163 0.5899169153153153 -0.47710932333331624
H H 0.39104439099099103 0.14071375495495494 0.6274069153153152 0.29540839516943906
