_cell_length_a  15
_cell_length_b  15
_cell_length_c  15

_cell_angle_alpha  90
_cell_angle_beta  90
_cell_angle_gamma  90

_symmetry_space_group_name_     'P 1'
_symmetry_space_group_name_H-M  'P 1'

loop_
_atom_site_label
_atom_site_type_symbol
_atom_site_fract_x
_atom_site_fract_y
_atom_site_fract_z
_atom_site_charge
C C 0.39790232612612614 0.4717899405405403 0.6015495801801802 0.33767256834790105
C C 0.46329232612612614 0.33002127387387376 0.5397789801801802 -0.03585996311052669
O O 0.4153095927927927 0.4584794738738738 0.6887636468468468 -0.47710516816839915
H H 0.5125397927927928 0.21533834054054043 0.46760218018018024 0.06206139486748887
C C 0.5119300594594595 0.28765827387387366 0.47180904684684677 -0.05724919994122904
C C 0.3991788594594594 0.5808712738738737 0.34695078018018016 0.33741615629939953
C C 0.4593099261261261 0.424216607207207 0.5404459135135135 0.0702310905823394
O O 0.4060683927927928 0.5987642738738737 0.26820444684684686 -0.24510936701930836
C C 0.5578931927927928 0.3364246072072072 0.4080625135135135 -0.046890471352238505
C C 0.507032126126126 0.47504380720720707 0.4767604468468469 0.011860680163380903
H H 0.5940275927927928 0.3021806738738738 0.35522224684684695 0.06259109919705423
C C 0.4546937261261261 0.6233946738738736 0.4166036468468468 0.06733585505193557
C C 0.5574892594594594 0.4290973405405404 0.4118349801801802 0.06735242123512218
H H 0.4214821261261262 0.7540219405405403 0.3660451135135136 0.06258288187005605
C C 0.5046841927927928 0.5736344738738738 0.47876598018018013 0.011613490706403126
C C 0.45724232612612614 0.7166896072072072 0.4170489135135135 -0.04713862592730255
O O 0.6021346594594594 0.46280427387387374 0.26406698018018016 -0.24510936603320443
C C 0.6117724594594595 0.4752080738738737 0.34366524684684685 0.33741637536497826
C C 0.5535597261261261 0.6213868738738738 0.5437490468468468 0.06733585505193557
C C 0.5053807261261262 0.7618801405405405 0.48256218018018016 -0.06017236055281206
O O 0.5947266594594595 0.5881468738738739 0.6903292468468468 -0.47711116795881414
H H 0.5065409927927929 0.8343466738738737 0.4826663801801802 0.06179941161020371
C C 0.6137183261261261 0.5727213405405405 0.6044611801801802 0.33741615629939953
C C 0.5528301261261261 0.7144443405405405 0.5468028468468468 -0.04713862592730255
O O 0.6760496594594595 0.5263898072072071 0.38011098018018014 -0.47711116734127956
O O 0.6700076594594594 0.5198050072072072 0.5793708468468469 -0.24510936701930836
H H 0.5909703927927927 0.7500160072072072 0.5971783135135136 0.06258288187005605
O O 0.3381641927927928 0.5238477405405404 0.38067658018018025 -0.47711116795881414
O O 0.3406061927927928 0.5216960072072071 0.5726243135135135 -0.24509968246771052
H H 0.32952765945945944 0.5276009405405405 0.4457703135135135 0.2954083847249347
H H 0.46468599279279277 0.4180524072072071 0.7018294468468469 0.2954084935962283
H H 0.6839599927927928 0.5196715405405403 0.4445622468468469 0.2954083847249347
H H 0.6366292594594595 0.5526329405405405 0.7257575135135135 0.2954083847249347
C C 0.41214685945945945 0.2704279405405405 0.6028295801801801 -0.03890873429388291
H H 0.36660919279279275 0.2269792738738738 0.5638285135135135 0.027774156261148805
H H 0.3703195261261261 0.30664040720720714 0.6514653801801802 0.027774156261148805
H H 0.45958392612612614 0.22767480720720706 0.6402444468468469 0.027774156261148805
