_cell_length_a  15
_cell_length_b  15
_cell_length_c  15

_cell_angle_alpha  90
_cell_angle_beta  90
_cell_angle_gamma  90

_symmetry_space_group_name_     'P 1'
_symmetry_space_group_name_H-M  'P 1'

loop_
_atom_site_label
_atom_site_type_symbol
_atom_site_fract_x
_atom_site_fract_y
_atom_site_fract_z
_atom_site_charge
C C 0.3959220703703704 0.462531325925926 0.6051090037037038 0.3392088928822474
C C 0.458627737037037 0.3220814592592594 0.542130937037037 0.03930120268622099
O O 0.4108953370370371 0.44365559259259263 0.691583137037037 -0.4770694336690918
H H 0.512687137037037 0.20807392592592594 0.47254013703703707 0.0636305446009338
C C 0.5088608037037037 0.280448125925926 0.47556627037037036 -0.03943561349089407
C C 0.3970318703703704 0.5752761259259261 0.3504340037037037 0.33741615901264255
C C 0.45712353703703706 0.4160435259259259 0.543126537037037 0.08787830100030325
O O 0.4043934703703704 0.592767725925926 0.271649537037037 -0.24510936701930836
C C 0.5543511370370371 0.32968345925925935 0.411287737037037 -0.0454035232101015
C C 0.5038041370370371 0.46831572592592585 0.4796470037037037 0.013393009018333818
H H 0.5915807370370371 0.2955157259259259 0.35920527037037026 0.06264004380077172
C C 0.45231340370370376 0.617569325925926 0.42040253703703695 0.06733651163771534
C C 0.5541033370370371 0.42266799259259263 0.4144286703703704 0.06745175537374752
H H 0.41987787037037044 0.7485885259259261 0.36992413703703697 0.06258288187005605
C C 0.5018834703703704 0.5672427925925926 0.482383737037037 0.011664434635347817
C C 0.4552534037037038 0.7110443259259258 0.42100313703703696 -0.047138623214059525
O O 0.6011686703703704 0.45651892592592597 0.26735740370370364 -0.2451093601793412
C C 0.609408337037037 0.4687561259259259 0.34714073703703696 0.337417679863781
C C 0.5507187370370371 0.6152023925925927 0.5472308037037036 0.06733651163771534
C C 0.503493937037037 0.7562761259259259 0.4864440037037037 -0.06017236055281206
O O 0.5936037370370371 0.5826029925925925 0.6936004703703703 -0.47711116795881414
H H 0.505184537037037 0.8286905925925926 0.4864998703703703 0.06179941161020371
C C 0.6111487370370371 0.5669045259259261 0.6075890037037036 0.33741615901264255
C C 0.5506076703703704 0.7085046592592593 0.5506892037037036 -0.047138623214059525
O O 0.6735760703703704 0.5196765925925926 0.3842892703703703 -0.47711116367537476
O O 0.6671344703703704 0.5140809925925927 0.580933537037037 -0.24510936701930836
H H 0.5896467370370371 0.7436690592592593 0.6006808037037037 0.06258288187005605
O O 0.33579640370370367 0.5186465925925927 0.38432340370370366 -0.47711116795881414
O O 0.33939380370370376 0.5140327925925926 0.5770460037037036 -0.24504200313627184
H H 0.3271822703703704 0.5224510592592592 0.449302337037037 0.2954083847249347
H H 0.46003907037037034 0.4016173259259259 0.7012179370370369 0.2954091405040836
H H 0.6813625370370371 0.5128554592592593 0.4489706703703703 0.2954083847249347
H H 0.635673737037037 0.5465193259259259 0.728378137037037 0.2954083847249347
N N 0.4086575370370371 0.2679520592592593 0.6019880703703703 -0.3573120391277476
H H 0.3655481370370371 0.2940671925925926 0.6484132703703703 0.142341569117196
H H 0.41194540370370375 0.19946952592592596 0.5974832703703703 0.142341569117196
