_cell_length_a  15
_cell_length_b  15
_cell_length_c  15

_cell_angle_alpha  90
_cell_angle_beta  90
_cell_angle_gamma  90

_symmetry_space_group_name_     'P 1'
_symmetry_space_group_name_H-M  'P 1'

loop_
_atom_site_label
_atom_site_type_symbol
_atom_site_fract_x
_atom_site_fract_y
_atom_site_fract_z
_atom_site_charge
C C 0.3895684411764705 0.44942174901960796 0.6117655215686274 0.33884020252561764
C C 0.45288064117647053 0.3089468823529412 0.5491433882352941 0.05555681918661445
O O 0.4069363078431373 0.4362407490196078 0.6986377215686275 -0.47707948720094373
H H 0.502714574509804 0.19262188235294117 0.48034978823529423 0.06324880812687918
C C 0.5018256411764705 0.2651040156862745 0.4834048549019608 -0.04177695533636625
C C 0.3909576411764706 0.5602502156862744 0.35687125490196075 0.3374161581805779
C C 0.4500503745098039 0.4022851490196079 0.5502841215686274 0.08557483075158087
O O 0.39832617450980395 0.577522482352941 0.2780109882352942 -0.24510936701930836
C C 0.5488903745098039 0.3138386156862745 0.41969385490196076 -0.04576088883194332
C C 0.4983111078431372 0.45347848235294125 0.4868761215686274 0.013025427226206447
H H 0.5854963078431372 0.2792362156862745 0.3674188549019608 0.06262625044047505
C C 0.4466821078431373 0.6025949490196078 0.4265677882352941 0.06733631553291429
C C 0.5488543745098039 0.40700781568627453 0.4226387215686275 0.06742382314538463
H H 0.4142839078431372 0.7334376156862744 0.37582765490196085 0.06258288187005605
C C 0.4966117078431373 0.552458749019608 0.48845518823529416 0.011650113152901204
C C 0.4497925745098039 0.6959248823529413 0.42682565490196084 -0.04713862404612418
O O 0.5916988411764705 0.4417540156862744 0.27473552156862746 -0.2451093619745797
C C 0.6026149745098038 0.4533994156862743 0.35418685490196083 0.33741729019879585
C C 0.5456558411764706 0.6002994156862744 0.5533656549019609 0.06733631553291429
C C 0.49805124117647054 0.7409522156862746 0.49228092156862746 -0.06017236055281206
O O 0.5875132411764705 0.5678662156862744 0.6997107882352942 -0.47711116795881414
H H 0.4994229078431373 0.8134952823529411 0.49265572156862747 0.06179941161020371
C C 0.6058911078431372 0.551667282352941 0.6138415215686275 0.3374161581805779
C C 0.5452973745098039 0.6934098823529412 0.5563527215686276 -0.04713862404612418
O O 0.6671462411764707 0.5048944823529412 0.3898099215686274 -0.47711116479961924
O O 0.6611111078431372 0.4975170823529412 0.5883647215686274 -0.24510936701930836
H H 0.5838388411764706 0.7286500156862744 0.6066818549019608 0.06258288187005605
O O 0.33043897450980386 0.5031106823529412 0.3908273215686275 -0.47711116795881414
O O 0.33380410784313724 0.501324682352941 0.5826731215686275 -0.24505824135382373
H H 0.32047597450980386 0.5085350156862746 0.45551918823529414 0.2954083847249347
H H 0.44975184117647055 0.38909174901960775 0.712440254901961 0.2954089472109863
H H 0.6759473078431372 0.498945749019608 0.45442425490196076 0.2954083847249347
H H 0.6285892411764705 0.5319401490196077 0.7356467882352943 0.2954083847249347
Cl Cl 0.3905685745098039 0.24277621568627444 0.6237113882352942 -0.08268101081896469
