_cell_length_a  15
_cell_length_b  15
_cell_length_c  15

_cell_angle_alpha  90
_cell_angle_beta  90
_cell_angle_gamma  90

_symmetry_space_group_name_     'P 1'
_symmetry_space_group_name_H-M  'P 1'

loop_
_atom_site_label
_atom_site_type_symbol
_atom_site_fract_x
_atom_site_fract_y
_atom_site_fract_z
_atom_site_charge
C C 0.38994628235294115 0.4500269607843138 0.6116281078431373 0.3384947811079124
C C 0.4528201490196079 0.30898916078431393 0.5489688411764707 0.03246484812123598
O O 0.4079393490196079 0.4377542941176472 0.698494174509804 -0.47708722855565916
H H 0.5033353490196079 0.1928826274509806 0.47959357450980394 0.06289701385279088
C C 0.5020524823529412 0.2653844941176472 0.48311090784313726 -0.04615312953661073
C C 0.39125228235294124 0.5603862941176472 0.35670450784313734 0.33741615760656446
C C 0.4503337490196079 0.4024212274509806 0.5502040411764707 0.08123641967262002
O O 0.39871648235294116 0.5778763607843138 0.277767974509804 -0.24510936701930836
C C 0.5488673490196078 0.3139072274509806 0.419370374509804 -0.04609512064541117
C C 0.49855901568627453 0.453523560784314 0.48636637450980397 0.012680874756339475
H H 0.5855749490196078 0.2797158941176473 0.3670968411764707 0.06261565153871211
C C 0.4468665490196078 0.6027518941176473 0.4263532411764707 0.0673361755710713
C C 0.5489370156862745 0.4073278941176472 0.42189744117647066 0.06740230047124306
H H 0.4141424823529411 0.7336071607843139 0.3759796411764706 0.06258288187005605
C C 0.4965325490196078 0.5525466941176471 0.48844984117647067 0.011639074609122887
C C 0.4496482823529412 0.6961483607843139 0.42699564117647065 -0.04713862462013762
O O 0.5931500823529412 0.44093642745098066 0.27400457450980403 -0.24510936321303056
C C 0.6033044823529412 0.45308742745098046 0.35343824117647066 0.33741701212861447
C C 0.5454881490196078 0.6002170941176472 0.553428374509804 0.0673361755710713
C C 0.4977603490196079 0.7411483607843139 0.4926356411764707 -0.06017236055281206
O O 0.5871691490196079 0.5677468274509807 0.699737374509804 -0.47711116795881414
H H 0.49917754901960787 0.8136680941176471 0.4928205078431373 0.06179941161020371
C C 0.6056665490196078 0.5516884274509807 0.6138898411764707 0.33741615760656446
C C 0.5450809490196079 0.6934018941176472 0.5566539078431373 -0.04713862462013762
O O 0.6674068823529411 0.5047552274509806 0.3892665078431373 -0.4771111655751828
O O 0.6613993490196078 0.49830582745098073 0.588550374509804 -0.24510936701930836
H H 0.5833986823529412 0.7287896941176472 0.607049374509804 0.06258288187005605
O O 0.3305168156862745 0.5033854941176473 0.3905175078431373 -0.47711116795881414
O O 0.3336395490196079 0.5010053607843139 0.5822748411764707 -0.24507073458494402
H H 0.32069081568627456 0.508637360784314 0.45533544117647057 0.2954083847249347
H H 0.45107694901960776 0.3907464941176472 0.7121571078431372 0.29540880932897984
H H 0.6758620156862745 0.4990302941176472 0.45400497450980404 0.2954083847249347
H H 0.6285782823529412 0.5320052274509807 0.7354813078431373 0.2954083847249347
Br Br 0.3851090823529412 0.23619436078431388 0.629772574509804 -0.04943435960779199
