_cell_length_a  15
_cell_length_b  15
_cell_length_c  15

_cell_angle_alpha  90
_cell_angle_beta  90
_cell_angle_gamma  90

_symmetry_space_group_name_     'P 1'
_symmetry_space_group_name_H-M  'P 1'

loop_
_atom_site_label
_atom_site_type_symbol
_atom_site_fract_x
_atom_site_fract_y
_atom_site_fract_z
_atom_site_charge
C C 0.39252684761904766 0.45648009142857143 0.6081780285714287 0.33867280673736494
C C 0.45543671428571425 0.3165092247619047 0.5428308285714286 0.06634637117870724
O O 0.40830378095238096 0.44121842476190476 0.6948270285714285 -0.47708408742002906
H H 0.5065960476190476 0.20099122476190476 0.47321356190476194 0.06307537149121675
C C 0.5050827142857143 0.27373082476190475 0.4767934952380953 -0.04273966214571883
C C 0.3950499142857143 0.5680368914285714 0.3524739619047619 0.3374161577994407
C C 0.4532640476190476 0.40995835809523806 0.545810961904762 0.0846292890815005
O O 0.40281111428571426 0.5852368914285714 0.273678561904762 -0.24510936701930836
C C 0.5522951142857143 0.3228152914285714 0.41395209523809534 -0.04592314969663739
C C 0.5014211142857142 0.46173055809523816 0.48273836190476194 0.012858538433555864
H H 0.5893472476190476 0.28882949142857145 0.3616368285714286 0.06261993904502257
C C 0.45004478095238093 0.610583158095238 0.4225787619047619 0.06733622571140065
C C 0.5518957142857144 0.4159200247619047 0.4178634285714286 0.06741104252943105
H H 0.4181592476190476 0.7414387580952381 0.37166882857142863 0.06258288187005605
C C 0.4993827809523809 0.5604303580952382 0.48503922857142867 0.011643560167875015
C C 0.453282380952381 0.7038640914285713 0.42292882857142866 -0.04713862442726142
O O 0.5942174476190477 0.4508060914285714 0.27010162857142866 -0.24510936279689666
C C 0.605366580952381 0.46257942476190467 0.3495126285714286 0.33741711172429484
C C 0.5484063142857143 0.6079327580952382 0.550045561904762 0.06733622571140065
C C 0.5013965809523809 0.7488300914285713 0.4886391619047619 -0.06017236055281206
O O 0.5895091142857143 0.5743171580952379 0.6962210952380953 -0.47711116795881414
H H 0.503019180952381 0.8213324247619048 0.48877362857142864 0.06179941161020371
C C 0.608609980952381 0.559185958095238 0.6103928952380954 0.3374161577994407
C C 0.5483698476190476 0.701096358095238 0.5529980952380953 -0.04713862442726142
O O 0.6700787809523809 0.513629158095238 0.38513709523809525 -0.4771111653145844
O O 0.6645735142857142 0.5061413580952382 0.584833561904762 -0.24510936701930836
H H 0.586821580952381 0.7364444914285714 0.6032903619047619 0.06258288187005605
O O 0.3344942476190476 0.5104570914285713 0.386151961904762 -0.47711116795881414
O O 0.3363266476190476 0.5079074914285714 0.579279561904762 -0.2450656715993732
H H 0.32357471428571427 0.5164882247619048 0.4506398952380953 0.2954083847249347
H H 0.4563170476190476 0.40050775809523803 0.7113378952380953 0.29540885867650807
H H 0.6790186476190476 0.5075896914285712 0.4497296952380953 0.2954083847249347
H H 0.6319438476190476 0.539818358095238 0.7320304952380953 0.2954083847249347
C C 0.40966498095238096 0.2612259580952381 0.6069264285714286 0.09999307989669262
N N 0.37339138095238095 0.21593649142857138 0.657745561904762 -0.1908472871721527
