_cell_length_a  15
_cell_length_b  15
_cell_length_c  15

_cell_angle_alpha  90
_cell_angle_beta  90
_cell_angle_gamma  90

_symmetry_space_group_name_     'P 1'
_symmetry_space_group_name_H-M  'P 1'

loop_
_atom_site_label
_atom_site_type_symbol
_atom_site_fract_x
_atom_site_fract_y
_atom_site_fract_z
_atom_site_charge
C C 0.39256085142857144 0.4618998304761907 0.6060393790476191 0.338482449336337
C C 0.4522471847619048 0.31747343047619053 0.5482461123809524 0.01935025491691406
O O 0.41236671809523806 0.45279503047619063 0.6929839123809525 -0.4770870291485456
H H 0.5009350514285714 0.1997854304761906 0.4796202457142858 0.06288610927665171
C C 0.500197718095238 0.2722696304761906 0.48229431238095244 -0.04695596012577233
C C 0.39230545142857143 0.568614563809524 0.35015584571428576 0.3374161576438524
C C 0.4516643847619048 0.4113126971428573 0.545654379047619 0.08043557224240966
O O 0.39783498476190476 0.5875682304761904 0.2715682457142858 -0.24510936701930836
C C 0.5476553847619048 0.31953816380952393 0.41685017904761906 -0.04610689206063619
C C 0.49984311809523807 0.4608608971428571 0.4805634457142857 0.0126685258827094
H H 0.5836817180952382 0.28357663047619064 0.3649248457142857 0.06261593188731111
C C 0.44893531809523807 0.6100940304761906 0.4198103123809524 0.06733618291305803
C C 0.5494215180952382 0.41288223047619066 0.41728371238095235 0.06740284976961926
H H 0.4140531847619047 0.7414986304761906 0.37127637904761907 0.06258288187005605
C C 0.49879318476190476 0.5600582971428573 0.481240579047619 0.011639355259090411
C C 0.45057098476190477 0.7036930304761905 0.4213569123809524 -0.047138624582849654
O O 0.5928890514285715 0.44579943047619064 0.268829979047619 -0.24510936313258125
C C 0.6037205180952382 0.45809216380952383 0.3482097123809524 0.3374170267267481
C C 0.5478632514285715 0.6074912304761905 0.5465395123809524 0.06733618291305803
C C 0.49917885142857144 0.7485502304761906 0.48681997904761914 -0.06017236055281206
O O 0.5904831180952381 0.5759346971428573 0.6929187790476191 -0.47711116795881414
H H 0.49994851809523805 0.8210235638095239 0.487807379047619 0.06179941161020371
C C 0.6080712514285714 0.5588237638095239 0.6071126457142857 0.3374161576438524
C C 0.5470045180952382 0.7006226304761906 0.5503105123809525 -0.047138624582849654
O O 0.6683461847619049 0.5100467638095239 0.3831110457142857 -0.4771111655248025
O O 0.6631277847619048 0.5047010304761907 0.5818315123809524 -0.24510936701930836
H H 0.5852218514285714 0.7358470971428573 0.6008286457142857 0.06258288187005605
O O 0.3321327847619048 0.5110222304761904 0.38408091238095243 -0.47711116795881414
O O 0.33680018476190476 0.5128424971428572 0.5755830457142858 -0.2450704092507333
H H 0.3231812514285714 0.5156506304761905 0.448987379047619 0.2954083847249347
H H 0.4495120514285714 0.4009972971428572 0.7071752457142857 0.2954088165887965
H H 0.6771032514285715 0.5051762971428573 0.44783724571428574 0.2954083847249347
H H 0.6304395180952381 0.5388650971428572 0.7288953123809524 0.2954083847249347
S S 0.38804671809523816 0.2527008304761906 0.6260414457142857 -0.1417975053707606
H H 0.4638625847619048 0.23189176380952384 0.6772109123809524 0.10712710176306005
