_cell_length_a  15
_cell_length_b  15
_cell_length_c  15

_cell_angle_alpha  90
_cell_angle_beta  90
_cell_angle_gamma  90

_symmetry_space_group_name_     'P 1'
_symmetry_space_group_name_H-M  'P 1'

loop_
_atom_site_label
_atom_site_type_symbol
_atom_site_fract_x
_atom_site_fract_y
_atom_site_fract_z
_atom_site_charge
C C 0.39518298333333335 0.46186793148148136 0.6056906574074075 0.33964562854484254
C C 0.4600969166666667 0.32413366481481465 0.5388956574074074 0.1407455136271408
O O 0.41184431666666665 0.44670686481481475 0.6924054574074073 -0.47706272553396173
H H 0.51063105 0.20723813148148137 0.47073505740740734 0.06406468035794242
C C 0.5086917833333333 0.27974939814814803 0.4733591240740741 -0.029852465728555082
C C 0.39745605 0.5752820648148148 0.3505319240740741 0.3374161593622936
C C 0.45660711666666665 0.4170368648148147 0.5433913240740741 0.09740975352760628
O O 0.40495258333333334 0.5926371314814814 0.27178545740740734 -0.24510936701930836
C C 0.5560533166666667 0.32931819814814806 0.41114399074074076 -0.04498192542339688
C C 0.50457745 0.4684880648148146 0.48015025740740735 0.013828956623089523
H H 0.5934459833333333 0.295955998148148 0.3586242574074074 0.06264918098004514
C C 0.4526223833333333 0.6177521314814814 0.4205463240740741 0.06733660842884376
C C 0.5551879166666667 0.422726798148148 0.4153000574074074 0.06747043999782244
H H 0.42039018333333333 0.7486287981481481 0.36975459074074074 0.06258288187005605
C C 0.5021983166666667 0.5674800648148148 0.482670924074074 0.011674024223364693
C C 0.45558705 0.7110449314814814 0.42101412407407407 -0.04713862286440849
O O 0.5991039166666667 0.4576975981481481 0.2677647240740741 -0.24510935942493212
C C 0.6091657166666666 0.4692185981481481 0.3474107240740741 0.3374178720964122
C C 0.5511507166666667 0.6150341314814813 0.5477658574074074 0.06733660842884376
C C 0.50362965 0.7560433314814815 0.48669612407407403 -0.06017236055281206
O O 0.5938529166666666 0.5829277314814814 0.6938951907407407 -0.47711116795881414
H H 0.50511225 0.8285343981481479 0.48686945740740745 0.06179941161020371
C C 0.61137465 0.5661323981481482 0.6080447240740742 0.3374161593622936
C C 0.5508155833333334 0.7082605981481479 0.5508655240740741 -0.04713862286440849
O O 0.6737941833333333 0.5206058648148147 0.3834278574074074 -0.477111163202936
O O 0.6658529166666667 0.5115541314814814 0.5824351907407407 -0.24510936701930836
H H 0.5892627166666666 0.7437881314814814 0.6011401240740741 0.06258288187005605
O O 0.33747478333333336 0.5172745314814813 0.38424205740740736 -0.47711116795881414
O O 0.33899505 0.513378398148148 0.5769078574074075 -0.24503120045071397
H H 0.32602511666666667 0.5235887981481482 0.4486190574074074 0.2954083847249347
H H 0.46017351666666667 0.40621673148148135 0.7099389907407407 0.29540923567776867
H H 0.6823429833333333 0.5144833314814812 0.448025324074074 0.2954083847249347
H H 0.6354843166666666 0.547470998148148 0.7297577240740741 0.2954083847249347
N N 0.40917651666666666 0.26731279814814796 0.598261524074074 0.05726185209186276
O O 0.34993885 0.2958186648148146 0.6430639240740741 -0.12611674342646118
O O 0.42174825000000005 0.18861179814814796 0.5988688574074074 -0.12611674342646118
