_cell_length_a  15
_cell_length_b  15
_cell_length_c  15

_cell_angle_alpha  90
_cell_angle_beta  90
_cell_angle_gamma  90

_symmetry_space_group_name_     'P 1'
_symmetry_space_group_name_H-M  'P 1'

loop_
_atom_site_label
_atom_site_type_symbol
_atom_site_fract_x
_atom_site_fract_y
_atom_site_fract_z
_atom_site_charge
C C 0.5246749904761904 0.6109436761904762 0.5046794761904762 0.0594043618747303
C C 0.4473677904761904 0.5593530095238095 0.5126458095238094 -0.03533899223068749
C C 0.4491298571428571 0.4653174095238095 0.5046320761904762 0.069504522172372
H H 0.3839282571428571 0.5930596095238095 0.5252400095238096 0.06313252450339919
C C 0.5317103904761904 0.42313020952380953 0.4894530095238095 0.07047627529582152
C C 0.6092457904761904 0.4757160095238096 0.48118480952380954 -0.04645068008272828
C C 0.6059299904761903 0.5687173428571428 0.4886196095238095 -0.04697460683832829
H H 0.6735650571428572 0.4441352095238095 0.4686820095238095 0.06259644543724348
H H 0.6670599904761905 0.6071834095238094 0.4818474095238095 0.06258456463176187
C C 0.5160071238095237 0.7091764095238094 0.5134780761904761 0.3368143199063974
O O 0.4470201238095237 0.7494480095238095 0.5269487428571429 -0.24513068675192737
O O 0.594369257142857 0.7517236761904761 0.5050969428571429 -0.47712437991613477
H H 0.5789015238095238 0.8148966761904762 0.5119400761904761 0.2954081516378567
C C 0.5450411238095237 0.32494074285714286 0.4801184761904762 0.33735048266235346
O O 0.47207639047619043 0.27720074285714286 0.4981676761904762 -0.4771158686481496
O O 0.6143423904761904 0.2886693428571429 0.45863580952380956 -0.24511697819291858
H H 0.48719932380952374 0.21502247619047624 0.4848435428571429 0.29540827463688407
C C 0.3598577904761904 0.4168397428571429 0.5137387428571428 0.41820363408050426
F F 0.3610466571428571 0.3614222761904762 0.5874909428571429 -0.1658771213928165
F F 0.2889987904761904 0.4749155428571429 0.5252727428571429 -0.1658771213928165
F F 0.3425273904761904 0.36818847619047623 0.43728400952380947 -0.1658771213928165
