_cell_length_a  15
_cell_length_b  15
_cell_length_c  15

_cell_angle_alpha  90
_cell_angle_beta  90
_cell_angle_gamma  90

_symmetry_space_group_name_     'P 1'
_symmetry_space_group_name_H-M  'P 1'

loop_
_atom_site_label
_atom_site_type_symbol
_atom_site_fract_x
_atom_site_fract_y
_atom_site_fract_z
_atom_site_charge
C C 0.4989225888888889 0.5955211703703704 0.5074045037037037 0.059851281907911294
C C 0.42091738888888897 0.5451893703703704 0.5159823037037037 -0.033837781581300616
C C 0.4223584555555556 0.45155610370370364 0.5086347703703704 0.028105443319912278
H H 0.35854965555555557 0.5798128370370371 0.528698237037037 0.06361603440123476
C C 0.5033256555555555 0.4072499703703703 0.49229563703703705 0.07193579493116826
C C 0.5815425888888889 0.4591927037037037 0.48389157037037034 -0.045989568455463155
C C 0.5795976555555556 0.552292837037037 0.4913627703703704 -0.046935883727144766
H H 0.6456444555555556 0.4271411703703703 0.471265837037037 0.06261600667981405
H H 0.641182388888889 0.5899523037037038 0.4844509037037037 0.06258509582493396
C C 0.49140678888888895 0.6937376370370371 0.515990037037037 0.33683371720838284
O O 0.42294212222222227 0.734967437037037 0.5300405703703703 -0.24513038170940513
O O 0.5701014555555556 0.7354676370370371 0.5070917703703703 -0.4771241895617247
H H 0.5551553888888889 0.7986901703703705 0.5144445037037036 0.29540815275842647
C C 0.5173845222222222 0.30918910370370367 0.482794837037037 0.33781178510229287
O O 0.4433841222222223 0.2598417703703703 0.4887741037037037 -0.4771020725521811
O O 0.5893255888888889 0.2735813037037037 0.47034723703703707 -0.24509468706388937
H H 0.46222025555555557 0.19768850370370364 0.4822517703703703 0.29540854831683727
I I 0.2960389222222223 0.38892797037037036 0.524278637037037 -0.04295729579980519
