_cell_length_a  15
_cell_length_b  15
_cell_length_c  15

_cell_angle_alpha  90
_cell_angle_beta  90
_cell_angle_gamma  90

_symmetry_space_group_name_     'P 1'
_symmetry_space_group_name_H-M  'P 1'

loop_
_atom_site_label
_atom_site_type_symbol
_atom_site_fract_x
_atom_site_fract_y
_atom_site_fract_z
_atom_site_charge
C C 0.5171593133333333 0.6043208033333333 0.5072735700000001 0.06060664012756653
C C 0.43915344666666667 0.5533976700000001 0.5148018366666667 -0.026273515776536912
C C 0.44088851333333334 0.4600838033333333 0.5067836366666667 0.039442227423587155
H H 0.3757302466666667 0.5871141366666667 0.5254123700000001 0.06441986369291575
C C 0.5229139133333334 0.41780047000000003 0.4887759033333333 0.07942570169982663
C C 0.6011432466666666 0.46911266999999995 0.48186390333333334 -0.04520987960697659
C C 0.59834218 0.5618673366666667 0.49074623666666667 -0.04688176385401099
H H 0.6650013133333333 0.43691247000000005 0.46875610333333334 0.06264329122387595
H H 0.6594935799999999 0.60017407 0.48380537 0.06258578967951493
C C 0.5093082466666667 0.70255567 0.51530937 0.3368608247161234
O O 0.4407835133333334 0.7438718033333332 0.5286530366666667 -0.24512998322938256
O O 0.5879299800000001 0.74464047 0.5060355033333334 -0.47712394087525595
H H 0.57251218 0.8078488033333333 0.5123402366666666 0.2954081541812895
C C 0.5339007133333333 0.31948300333333335 0.4792510366666667 0.33859176093483284
O O 0.4580644466666667 0.27249746999999996 0.4905841033333333 -0.47708280403196185
O O 0.6039030466666666 0.2811123366666666 0.46460983666666666 -0.245063577414333
H H 0.4771687133333334 0.2105730033333333 0.48145870333333335 0.2954089057456671
N N 0.35554358 0.41804687 0.5157096366666667 -0.35731083486415216
H H 0.30015644666666674 0.4565713366666666 0.52889137 0.14234157011370507
H H 0.34090338000000003 0.3520158033333333 0.5089382366666667 0.14234157011370507
