_cell_length_a  15
_cell_length_b  15
_cell_length_c  15

_cell_angle_alpha  90
_cell_angle_beta  90
_cell_angle_gamma  90

_symmetry_space_group_name_     'P 1'
_symmetry_space_group_name_H-M  'P 1'

loop_
_atom_site_label
_atom_site_type_symbol
_atom_site_fract_x
_atom_site_fract_y
_atom_site_fract_z
_atom_site_charge
C C 0.49654765185185185 0.5938108999999999 0.5076075185185185 0.061582269315198356
C C 0.4191143851851852 0.5426233 0.5160884518518518 -0.011663376379280404
C C 0.4233515185185185 0.45006989999999997 0.5084369185185185 0.13811313039935924
H H 0.35496118518518516 0.5738980333333333 0.5286799851851851 0.06544572258101392
C C 0.5043416518518519 0.4071234333333333 0.4922895851851852 0.09393638194031091
C C 0.5820473185185185 0.4586305666666667 0.48379738518518517 -0.044202567290449524
C C 0.578234051851852 0.5515665 0.4914157185185185 -0.04682234970966402
H H 0.6460293851851852 0.4266268333333334 0.4711964518518518 0.06267318503842079
H H 0.6392441185185186 0.5902262333333332 0.4846179185185185 0.06258649832583867
C C 0.48862511851851853 0.6919122333333333 0.5162938518518518 0.33689058167498
O O 0.41995965185185186 0.7328153666666667 0.5299314518518519 -0.2451295762220796
O O 0.5672537851851852 0.7339220333333334 0.5075214518518518 -0.4771236868385196
H H 0.5522846518518517 0.7971485 0.5146959185185185 0.2954081555872549
C C 0.5128035851851852 0.3092128333333334 0.48360438518518517 0.3395994109754962
O O 0.4355676518518518 0.26499996666666664 0.49179265185185184 -0.4770616651620664
O O 0.5824183851851852 0.2696780333333333 0.47007731851851847 -0.2450294738254594
H H 0.45108385185185185 0.20200903333333337 0.4846725185185185 0.2954092707273953
F F 0.3461320518518518 0.40372630000000004 0.5172805185185185 -0.20461191113774943
