_cell_length_a  15
_cell_length_b  15
_cell_length_c  15

_cell_angle_alpha  90
_cell_angle_beta  90
_cell_angle_gamma  90

_symmetry_space_group_name_     'P 1'
_symmetry_space_group_name_H-M  'P 1'

loop_
_atom_site_label
_atom_site_type_symbol
_atom_site_fract_x
_atom_site_fract_y
_atom_site_fract_z
_atom_site_charge
C C 0.5155144233333333 0.6050793833333332 0.5069278899999999 0.06102842118842027
C C 0.43800888999999993 0.5540863166666666 0.5150952233333334 -0.016693912641927936
C C 0.4416788233333333 0.46054425 0.5074803566666667 0.14088644113603743
H H 0.37438822333333327 0.5875467833333333 0.52640129 0.06485528229113048
C C 0.5227561566666666 0.41659858333333327 0.4923872233333333 0.08895981746120915
C C 0.6001577566666666 0.4695016499999999 0.48400855666666665 -0.0447741522605213
C C 0.5966899566666667 0.5625879166666666 0.4910107566666666 -0.0468629175438193
H H 0.66451949 0.43805485 0.47161375666666666 0.06265272916881252
H H 0.6578881566666667 0.6009255833333333 0.48372095666666665 0.062585974216196
C C 0.5078075566666667 0.7034888499999999 0.5149447566666666 0.3368702609967769
O O 0.43826508999999997 0.7436775166666666 0.5280460233333333 -0.24512987722507026
O O 0.5855539566666667 0.7459698499999999 0.5061632233333333 -0.4771238746887429
H H 0.5698965566666666 0.8092469833333332 0.5129033566666666 0.2954081545090799
C C 0.5373458233333334 0.31909131666666657 0.4833110233333333 0.3390276108812481
O O 0.46940949 0.26915944999999997 0.51197229 -0.4770761087350112
O O 0.6050564233333333 0.28497624999999993 0.45425989 -0.24505279538539687
H H 0.48276609 0.2084901833333333 0.4912301566666667 0.29540900075586807
N N 0.3563501566666666 0.41596985 0.51058949 0.057263430314726915
O O 0.29337662333333336 0.4531299833333333 0.5422691566666666 -0.1261167422195081
O O 0.34257035666666663 0.3518744499999999 0.46566462333333336 -0.1261167422195081
