_cell_length_a  15
_cell_length_b  15
_cell_length_c  15

_cell_angle_alpha  90
_cell_angle_beta  90
_cell_angle_gamma  90

_symmetry_space_group_name_     'P 1'
_symmetry_space_group_name_H-M  'P 1'

loop_
_atom_site_label
_atom_site_type_symbol
_atom_site_fract_x
_atom_site_fract_y
_atom_site_fract_z
_atom_site_charge
C C 0.5085613789473684 0.6011787368421052 0.5062454456140351 0.06008819711923758
C C 0.4309684456140351 0.549868803508772 0.5147581122807018 -0.029574628446268757
C C 0.4336781789473684 0.4563414701754386 0.5073547789473684 0.06648680389126686
H H 0.36752124561403504 0.5831736035087719 0.5273938456140351 0.06386351110254601
C C 0.5156789789473684 0.4137372701754386 0.49098904561403506 0.07617419266244502
C C 0.5932433122807017 0.46584760350877197 0.48258044561403507 -0.04574487778813598
C C 0.5898193789473684 0.558791403508772 0.4900683789473684 -0.0469228394413468
H H 0.6574313789473684 0.43406827017543864 0.46997597894736837 0.0626225613981461
H H 0.6511837122807017 0.5972792701754385 0.4832851122807017 0.06258524350207798
C C 0.5007757789473684 0.6993156701754386 0.5149021122807017 0.33684024946617314
O O 0.4319491789473684 0.7400188035087719 0.5285525122807017 -0.2451302968915226
O O 0.5792662456140351 0.7414236701754385 0.506129045614035 -0.47712413661751163
H H 0.564377245614035 0.8047048035087718 0.513321045614035 0.29540815304397827
C C 0.527379445614035 0.31561040350877195 0.48176171228070175 0.33805655239951826
O O 0.4512707789473684 0.26964580350877193 0.4890915122807017 -0.4770974331608758
O O 0.5980735789473683 0.27800580350877196 0.468666245614035 -0.245087206123174
H H 0.4664515122807017 0.2064818701754386 0.4823497122807017 0.2954086243762543
C C 0.35000284561403505 0.41029973684210524 0.517247045614035 0.09999461552734103
N N 0.2823673789473684 0.3742070035087719 0.5253279122807017 -0.19084728602014914
