_cell_length_a  15
_cell_length_b  15
_cell_length_c  15

_cell_angle_alpha  90
_cell_angle_beta  90
_cell_angle_gamma  90

_symmetry_space_group_name_     'P 1'
_symmetry_space_group_name_H-M  'P 1'

loop_
_atom_site_label
_atom_site_type_symbol
_atom_site_fract_x
_atom_site_fract_y
_atom_site_fract_z
_atom_site_charge
C C 0.5087952807017544 0.6005555333333333 0.5063338561403509 0.05990437689381311
C C 0.4300602807017544 0.5507490666666667 0.5116980561403509 -0.033789381205352596
C C 0.42957034736842103 0.45785286666666664 0.49835112280701754 0.019490668633248786
H H 0.36734914736842106 0.5858875333333332 0.5222575894736843 0.06367368902680798
C C 0.5113225473684211 0.4129732 0.4860866561403509 0.07197931174160639
C C 0.5908611473684211 0.46428213333333335 0.4825118561403509 -0.04593479517710106
C C 0.5892926807017544 0.5572525333333334 0.49001572280701755 -0.046931103154193944
H H 0.6546410807017544 0.43163266666666666 0.47001012280701754 0.06261842214011384
H H 0.650793947368421 0.5948381333333332 0.4816075228070176 0.0625851619031058
C C 0.5012700807017544 0.6990774666666667 0.5133648561403509 0.3368361119716888
O O 0.43256254736842104 0.7403233333333332 0.5254792561403508 -0.24513034376312987
O O 0.5797282807017543 0.7411580666666666 0.5038470561403509 -0.47712416588245316
H H 0.5638092140350878 0.8044112666666666 0.5086629894736843 0.2954081528981272
C C 0.524031347368421 0.31550600000000006 0.4753514561403509 0.33786658180058265
O O 0.45127481403508773 0.2663590666666667 0.4932103228070176 -0.47710036926133403
O O 0.5937582807017544 0.27889233333333335 0.4544829894736842 -0.2450919347183784
H H 0.4686036807017544 0.205313 0.47925065614035084 0.29540858236085776
S S 0.323009547368421 0.40305493333333337 0.5023912561403509 -0.1417960689445363
H H 0.329265747368421 0.3898808666666667 0.595086656140351 0.10712710273652692
