_cell_length_a  15
_cell_length_b  15
_cell_length_c  15

_cell_angle_alpha  90
_cell_angle_beta  90
_cell_angle_gamma  90

_symmetry_space_group_name_     'P 1'
_symmetry_space_group_name_H-M  'P 1'

loop_
_atom_site_label
_atom_site_type_symbol
_atom_site_fract_x
_atom_site_fract_y
_atom_site_fract_z
_atom_site_charge
C C 0.507041898245614 0.6012015824561403 0.5101740877192983 0.06231713149891367
C C 0.4283615649122806 0.5516611157894736 0.5136952210526315 -0.005394190347695699
C C 0.4302608982456139 0.45937151578947366 0.5028480877192982 0.1315936570374743
H H 0.36463449824561395 0.5846967157894736 0.5240726877192983 0.06623047745531715
C C 0.511541098245614 0.4141741157894737 0.49162088771929824 0.10013453985667319
C C 0.590415098245614 0.4647977157894737 0.48748842105263157 -0.04344426483158676
C C 0.5881743649122806 0.557972249122807 0.49583122105263155 -0.046767393496469405
H H 0.6543899649122806 0.4319761157894737 0.4764389543859649 0.06270090219019032
H H 0.650014298245614 0.595334849122807 0.49062868771929824 0.06258721455318036
C C 0.5001857649122806 0.6991391157894735 0.5196892877192982 0.3369181107737818
O O 0.43216343157894727 0.7409380491228069 0.533631754385965 -0.2451291648768146
O O 0.5789146315789473 0.7406102491228069 0.5100613543859649 -0.4771234301292792
H H 0.5639428982456139 0.8038071157894736 0.5160210877192982 0.2954081570664696
C C 0.5211558982456139 0.3163039157894737 0.48152102105263156 0.3403580039157549
O O 0.4458050315789473 0.27103471578947375 0.5015616210526316 -0.47704209816359294
O O 0.589584298245614 0.277164049122807 0.4607270877192982 -0.24499787661562228
H H 0.463024698245614 0.2086391157894737 0.48875908771929827 0.2954096396453325
O O 0.348541298245614 0.420765449122807 0.5042192877192982 -0.5059230882792051
H H 0.33184836491228065 0.360412249122807 0.4910101543859649 0.292163672747178
