_cell_length_a  15
_cell_length_b  15
_cell_length_c  15

_cell_angle_alpha  90
_cell_angle_beta  90
_cell_angle_gamma  90

_symmetry_space_group_name_     'P 1'
_symmetry_space_group_name_H-M  'P 1'

loop_
_atom_site_label
_atom_site_type_symbol
_atom_site_fract_x
_atom_site_fract_y
_atom_site_fract_z
_atom_site_charge
C C 0.49859404814814823 0.5951616814814815 0.5073656074074074 0.059916239209645346
C C 0.42055911481481495 0.5449477481481482 0.516012474074074 -0.032986737134713826
C C 0.42193711481481494 0.4516246148148148 0.5087594074074074 0.03260519188244253
H H 0.35778451481481494 0.5792852814814815 0.5286783407407408 0.06368465413901506
C C 0.5028015814814816 0.40734534814814816 0.4924709407407407 0.07278028236303438
C C 0.5811085814814816 0.4587486148148149 0.4839348740740741 -0.04592250114928669
C C 0.579279114814815 0.5518313481481482 0.4912780074074074 -0.046931657830290775
H H 0.6450835814814816 0.4263997481481482 0.47130674074074075 0.06261813480822125
H H 0.6409638481481482 0.5894131481481482 0.4843593407407408 0.06258514784264727
C C 0.4911810481481483 0.6932738814814815 0.5160161407407408 0.33683583369793657
O O 0.4225711148148149 0.7343932148148148 0.5295951407407408 -0.245130351835161
O O 0.5697796481481483 0.7352500814814814 0.5074474740740741 -0.47712417091641796
H H 0.5543381814814815 0.7983820148148147 0.5147226740740741 0.295408152863173
C C 0.5156701814814816 0.30916781481481487 0.4830330740740741 0.3378788755977076
O O 0.4416443148148149 0.26023328148148145 0.4904000074074074 -0.47710056849386956
O O 0.5872126481481482 0.27309461481481484 0.4693584074074074 -0.24509225976343535
H H 0.46074584814814823 0.19831188148148152 0.4827814740740741 0.29540857511195334
Br Br 0.30874551481481494 0.39313568148148154 0.522479874074074 -0.049432840392601284
