_cell_length_a  15
_cell_length_b  15
_cell_length_c  15

_cell_angle_alpha  90
_cell_angle_beta  90
_cell_angle_gamma  90

_symmetry_space_group_name_     'P 1'
_symmetry_space_group_name_H-M  'P 1'

loop_
_atom_site_label
_atom_site_type_symbol
_atom_site_fract_x
_atom_site_fract_y
_atom_site_fract_z
_atom_site_charge
C C 0.4980049370370371 0.5948590222222222 0.5074837777777778 0.06025008313261607
C C 0.42013087037037045 0.5444027555555555 0.5160559111111112 -0.02861283442365393
C C 0.42219000370370374 0.45111042222222225 0.5086578444444444 0.055697338667464104
H H 0.3570888703703704 0.5780391555555556 0.5286929777777778 0.06403731472256874
C C 0.5031209370370371 0.4071583555555556 0.49245391111111114 0.07712051078323687
C C 0.5813122037037037 0.4588437555555555 0.48391264444444443 -0.045577821262889624
C C 0.5789310703703704 0.5518297555555556 0.4913326444444444 -0.04690994494185138
H H 0.645327937037037 0.4265984888888889 0.4712910444444444 0.06262906911821782
H H 0.6403944703703703 0.5897917555555556 0.4844370444444444 0.06258541507752757
C C 0.49038520370370375 0.6930644222222223 0.5161638444444444 0.3368467084258887
O O 0.42165353703703706 0.7340426222222223 0.5297751777777778 -0.2451301983588053
O O 0.5688330703703703 0.7349482888888889 0.5075035777777778 -0.47712407512774135
H H 0.5538517370370372 0.7981524888888889 0.5146824444444444 0.2954081534012672
C C 0.5152062703703704 0.30896422222222225 0.4831083111111111 0.33822367481082494
O O 0.4402970703703704 0.26109015555555554 0.4904855777777778 -0.4770928406729019
O O 0.5863826703703704 0.27223575555555557 0.46971091111111113 -0.24507978836027708
H H 0.4579018703703704 0.19867608888888888 0.4832487777777778 0.29540871276672226
Cl Cl 0.3189872703703704 0.39619248888888886 0.5210035777777777 -0.08267947775821366
