_cell_length_a  15
_cell_length_b  15
_cell_length_c  15

_cell_angle_alpha  90
_cell_angle_beta  90
_cell_angle_gamma  90

_symmetry_space_group_name_     'P 1'
_symmetry_space_group_name_H-M  'P 1'

loop_
_atom_site_label
_atom_site_type_symbol
_atom_site_fract_x
_atom_site_fract_y
_atom_site_fract_z
_atom_site_charge
C C 0.5285871555555555 0.608244126984127 0.5021904857142857 0.05964873789404416
C C 0.4515776222222222 0.555943526984127 0.5110394857142857 -0.03299328292311557
C C 0.45491768888888884 0.46192479365079364 0.5046752857142857 0.0735305321903708
H H 0.38834268888888884 0.589382526984127 0.5246880857142857 0.06339305433357158
C C 0.5371312222222222 0.4204889936507936 0.48719581904761905 0.0727980075559686
C C 0.6141989555555555 0.47387072698412697 0.47900535238095243 -0.04619842711373937
C C 0.6102806888888889 0.5665909936507936 0.4869500857142857 -0.04695669630243874
H H 0.6788660888888889 0.44299432698412694 0.46670608571428573 0.0626054781289229
H H 0.6714638888888889 0.6052821936507936 0.4811872190476191 0.06258479677180105
C C 0.5213802222222221 0.7067009936507936 0.5110072857142858 0.3368232907708524
O O 0.45244642222222214 0.7471052603174603 0.5246831523809524 -0.24513055343900628
O O 0.5997222222222223 0.7483201936507936 0.5026449523809524 -0.4771242967186612
H H 0.5850301555555556 0.8116093936507937 0.5097964190476191 0.29540815211633414
C C 0.5530290888888889 0.323206526984127 0.4765269523809524 0.33760282905394545
O O 0.4795106888888888 0.27532866031746034 0.46184001904761907 -0.4771094909006074
O O 0.6262074222222223 0.2879296603174603 0.47841741904761903 -0.24510667988974574
H H 0.4970089555555555 0.213140326984127 0.47156341904761906 0.2954083942305947
C C 0.3663179555555555 0.417136126984127 0.5222633523809523 0.3376234916645887
O O 0.36053495555555554 0.339195926984127 0.5440699523809523 -0.24510641008042816
O O 0.2905370888888888 0.46595759365079364 0.520485619047619 -0.4771093224837014
H H 0.23290882222222214 0.439647126984127 0.5330635523809524 0.2954083951404494
