_cell_length_a  15
_cell_length_b  15
_cell_length_c  15

_cell_angle_alpha  90
_cell_angle_beta  90
_cell_angle_gamma  90

_symmetry_space_group_name_     'P 1'
_symmetry_space_group_name_H-M  'P 1'

loop_
_atom_site_label
_atom_site_type_symbol
_atom_site_fract_x
_atom_site_fract_y
_atom_site_fract_z
_atom_site_charge
C C 0.5233323841269841 0.6106437238095239 0.5046907523809524 0.05912170019150391
C C 0.4459886507936508 0.5591912571428571 0.5137506857142857 -0.044077279115269236
C C 0.4481089174603175 0.4653177238095238 0.5074771523809524 -0.03572008158347788
H H 0.3827431174603175 0.5928321238095239 0.5259835523809524 0.06284693816622722
C C 0.5300676507936508 0.4228319238095238 0.48923555238095234 0.06177055674600991
C C 0.6076879841269841 0.4752437904761904 0.48049961904761906 -0.046742934973981874
C C 0.6046688507936508 0.5681689238095238 0.48837115238095236 -0.04698197738415399
H H 0.6716545841269841 0.44354679047619044 0.46734415238095234 0.06259280216627111
H H 0.6657283174603175 0.6065696571428573 0.481318419047619 0.0625845359231506
C C 0.5148743841269842 0.7089608571428572 0.5128476857142857 0.3368106326267085
O O 0.4459019174603175 0.7499184571428572 0.526308419047619 -0.24513070326543646
O O 0.5931979841269841 0.7514535238095239 0.5040882857142858 -0.4771243902575024
H H 0.5777111174603176 0.8145797238095239 0.510727219047619 0.2954081516378567
C C 0.5430401174603176 0.3245369238095238 0.4786636857142857 0.33705816342791206
O O 0.46753311746031745 0.2766623238095238 0.47813301904761907 -0.4771184765148089
O O 0.6148472507936508 0.28751992380952374 0.4703185523809524 -0.24512115670109216
H H 0.4872414507936508 0.21454685714285715 0.4745628857142857 0.2954082599013715
C C 0.36104805079365077 0.41620612380952376 0.5191168857142857 -0.03890721309809806
H H 0.3437117174603175 0.3798706571428571 0.457041419047619 0.027774157368936445
H H 0.3048661174603175 0.4622532571428571 0.5334933523809524 0.027774157368936445
H H 0.36604631746031746 0.3691454571428571 0.5760275523809523 0.027774157368936445
